0,   100.00, 30, 0, 1,  60.00     / PSS(R)E 30 RAW created on TUE, FEB 12 2019  19:48
Polish test system
2383 BUSES TEST CASE
     1,'BUS_1       ', 220.0000,1,     0.000,     0.000,   1,   1,1.01205,   3.3817,   1
     2,'BUS_2       ', 220.0000,1,     0.000,     0.000,   1,   1,0.99873,   3.9143,   1
     3,'BUS_3       ', 220.0000,1,     0.000,     0.000,   1,   1,0.97643, -10.8019,   1
     4,'BUS_4       ', 220.0000,1,     0.000,     0.000,   1,   1,0.98239,   0.2475,   1
     5,'BUS_5       ', 220.0000,1,     0.000,     0.000,   1,   1,0.99189,  -6.0275,   1
     6,'BUS_6       ', 400.0000,1,     0.000,     0.000,   1,   1,0.98305,  -2.6972,   1
     7,'BUS_7       ', 220.0000,1,     0.000,     0.000,   1,   1,0.97322,  -7.3215,   1
     8,'BUS_8       ', 400.0000,1,     0.000,     0.000,   1,   1,0.99388,  -2.1263,   1
     9,'BUS_9       ', 400.0000,1,     0.000,     0.000,   1,   1,0.98081,  -4.7734,   1
    10,'BUS_10      ', 220.0000,2,     0.000,     0.000,   1,   1,1.00000,  -5.0096,   1
    11,'BUS_11      ', 220.0000,1,     0.000,     0.000,   1,   1,0.98878,   1.1144,   1
    12,'BUS_12      ', 220.0000,1,     0.000,     0.000,   1,   1,0.96845,  -8.0694,   1
    13,'BUS_13      ', 220.0000,1,     0.000,     0.000,   1,   1,0.97643,  -7.1228,   1
    14,'BUS_14      ', 220.0000,1,     0.000,     0.000,   1,   1,0.98216,   1.5795,   1
    15,'BUS_15      ', 400.0000,1,     0.000,     0.000,   1,   1,0.97528,  -6.1541,   1
    16,'BUS_16      ', 220.0000,2,     0.000,     0.000,   1,   1,1.01468,   3.8201,   1
    17,'BUS_17      ', 220.0000,2,     0.000,     0.000,   1,   1,1.00346,   4.6010,   1
    18,'BUS_18      ', 400.0000,2,     0.000,     0.000,   1,   1,1.00000,  -0.3169,   1
    19,'BUS_19      ', 220.0000,1,     0.000,     0.000,   1,   1,0.97539,  -7.9937,   1
    20,'BUS_20      ', 400.0000,1,     0.000,     0.000,   1,   1,0.99860,  -1.4817,   1
    21,'BUS_21      ', 220.0000,1,     0.000,     0.000,   1,   1,0.97314,  -7.7329,   1
    22,'BUS_22      ', 220.0000,1,     0.000,     0.000,   1,   1,0.98008,  -0.5175,   1
    23,'BUS_23      ', 220.0000,1,     0.000,     0.000,   1,   1,0.99903,  -2.0991,   1
    24,'BUS_24      ', 220.0000,1,     0.000,     0.000,   1,   1,1.01382,  -0.3457,   1
    25,'BUS_25      ', 220.0000,1,     0.000,     0.000,   1,   1,1.01376,   1.4482,   1
    26,'BUS_26      ', 220.0000,1,     0.000,     0.000,   1,   1,0.98562,  -4.1589,   1
    27,'BUS_27      ', 220.0000,1,     0.000,     0.000,   1,   1,0.99912,  -1.6137,   1
    28,'BUS_28      ', 220.0000,1,     0.000,     0.000,   1,   1,0.99912,  -1.6137,   1
    29,'BUS_29      ', 220.0000,2,     0.000,     0.000,   1,   1,1.00768,  -0.1590,   1
    30,'BUS_30      ', 220.0000,2,     0.000,     0.000,   1,   1,1.00768,  -0.1590,   1
    31,'BUS_31      ', 400.0000,2,     0.000,     0.000,   1,   1,0.99317,   2.1353,   1
    32,'BUS_32      ', 400.0000,1,     0.000,     0.000,   1,   1,0.99317,   2.1353,   1
    33,'BUS_33      ', 220.0000,1,     0.000,     0.000,   1,   1,0.99426,  -2.2479,   1
    34,'BUS_34      ', 400.0000,1,     0.000,     0.000,   1,   1,1.01453,  -0.7593,   1
    35,'BUS_35      ', 400.0000,1,     0.000,     0.000,   1,   1,1.01453,  -0.7593,   1
    36,'BUS_36      ', 400.0000,1,     0.000,     0.000,   1,   1,0.97044,  -0.3327,   1
    37,'BUS_37      ', 220.0000,1,     0.000,     0.000,   1,   1,0.99157,  -2.2443,   1
    38,'BUS_38      ', 220.0000,1,     0.000,     0.000,   1,   1,0.99157,  -2.2443,   1
    39,'BUS_39      ', 400.0000,1,     0.000,     0.000,   1,   1,0.98972,   1.8992,   1
    40,'BUS_40      ', 400.0000,1,     0.000,     0.000,   1,   1,0.98972,   1.8992,   1
    41,'BUS_41      ', 220.0000,2,     0.000,     0.000,   1,   1,1.01901,   3.0530,   1
    42,'BUS_42      ', 220.0000,2,     0.000,     0.000,   1,   1,1.01901,   3.0530,   1
    43,'BUS_43      ', 400.0000,2,     0.000,     0.000,   1,   1,1.00000,   3.1849,   1
    44,'BUS_44      ', 400.0000,2,     0.000,     0.000,   1,   1,1.00000,   3.1849,   1
    45,'BUS_45      ', 220.0000,2,     0.000,     0.000,   1,   1,0.99770,  -1.4995,   1
    46,'BUS_46      ', 220.0000,1,     0.000,     0.000,   1,   1,0.99770,  -1.4995,   1
    47,'BUS_47      ', 220.0000,1,     0.000,     0.000,   1,   1,0.99786,  -1.7065,   1
    48,'BUS_48      ', 220.0000,1,     0.000,     0.000,   1,   1,0.99794,  -1.6667,   1
    49,'BUS_49      ', 220.0000,1,     0.000,     0.000,   1,   1,0.99794,  -1.6667,   1
    50,'BUS_50      ', 400.0000,1,     0.000,     0.000,   1,   1,1.00258,   0.7506,   1
    51,'BUS_51      ', 400.0000,1,     0.000,     0.000,   1,   1,1.00258,   0.7506,   1
    52,'BUS_52      ', 220.0000,1,     0.000,     0.000,   1,   1,1.00467,  -0.0833,   1
    53,'BUS_53      ', 220.0000,1,     0.000,     0.000,   1,   1,1.00640,   0.0066,   1
    54,'BUS_54      ', 220.0000,1,     0.000,     0.000,   1,   1,1.01408,   1.4861,   1
    55,'BUS_55      ', 220.0000,1,     0.000,     0.000,   1,   1,0.99073,  -1.0293,   1
    56,'BUS_56      ', 220.0000,1,     0.000,     0.000,   1,   1,1.01079,  -1.3882,   1
    57,'BUS_57      ', 220.0000,1,     0.000,     0.000,   1,   1,1.01851,   0.7804,   1
    58,'BUS_58      ', 220.0000,1,     0.000,     0.000,   1,   1,1.01873,   0.7808,   1
    59,'BUS_59      ', 220.0000,1,     0.000,     0.000,   1,   1,0.99521,   4.7417,   1
    60,'BUS_60      ', 220.0000,1,     0.000,     0.000,   1,   1,0.99781,  -1.3176,   1
    61,'BUS_61      ', 220.0000,1,     0.000,     0.000,   1,   1,0.99902,   6.6479,   1
    62,'BUS_62      ', 220.0000,1,     0.000,     0.000,   1,   1,0.99902,   6.6479,   1
    63,'BUS_63      ', 220.0000,2,     0.000,     0.000,   1,   1,1.00000,   5.1429,   1
    64,'BUS_64      ', 220.0000,2,     0.000,     0.000,   1,   1,1.00210,   5.1084,   1
    65,'BUS_65      ', 220.0000,1,     0.000,     0.000,   1,   1,0.99431,   2.5262,   1
    66,'BUS_66      ', 220.0000,1,     0.000,     0.000,   1,   1,1.03731,  -5.3953,   1
    67,'BUS_67      ', 400.0000,2,     0.000,     0.000,   1,   1,1.00000,  -4.0403,   1
    68,'BUS_68      ', 220.0000,1,     0.000,     0.000,   1,   1,1.02180,  -4.1881,   1
    69,'BUS_69      ', 220.0000,1,     0.000,     0.000,   1,   1,0.99806,   2.3928,   1
    70,'BUS_70      ', 220.0000,1,     0.000,     0.000,   1,   1,1.01286,  -0.6336,   1
    71,'BUS_71      ', 220.0000,1,     0.000,     0.000,   1,   1,0.99589,   1.3610,   1
    72,'BUS_72      ', 220.0000,1,     0.000,     0.000,   1,   1,0.99589,   1.3610,   1
    73,'BUS_73      ', 220.0000,1,     0.000,     0.000,   1,   1,1.01698,   0.0645,   1
    74,'BUS_74      ', 220.0000,1,     0.000,     0.000,   1,   1,1.01527,  -0.7036,   1
    75,'BUS_75      ', 400.0000,1,     0.000,     0.000,   1,   1,0.98959,  -0.6870,   1
    76,'BUS_76      ', 400.0000,1,     0.000,     0.000,   1,   1,0.98959,  -0.6870,   1
    77,'BUS_77      ', 220.0000,1,     0.000,     0.000,   1,   1,0.99536,   0.6456,   1
    78,'BUS_78      ', 220.0000,1,     0.000,     0.000,   1,   1,1.00280,  -2.5514,   1
    79,'BUS_79      ', 220.0000,1,     0.000,     0.000,   1,   1,1.00229,   3.2171,   1
    80,'BUS_80      ', 220.0000,1,     0.000,     0.000,   1,   1,1.01911,   0.8309,   1
    81,'BUS_81      ', 220.0000,1,     0.000,     0.000,   1,   1,1.01911,   0.8309,   1
    82,'BUS_82      ', 220.0000,1,     0.000,     0.000,   1,   1,0.99437,   5.3492,   1
    83,'BUS_83      ', 220.0000,2,     0.000,     0.000,   1,   1,1.00000,   2.1695,   1
    84,'BUS_84      ', 220.0000,2,     0.000,     0.000,   1,   1,1.00000,   2.1695,   1
    85,'BUS_85      ', 220.0000,2,     0.000,     0.000,   1,   1,1.00000,   0.4967,   1
    86,'BUS_86      ', 220.0000,2,     0.000,     0.000,   1,   1,1.00000,   0.4967,   1
    87,'BUS_87      ', 220.0000,1,     0.000,     0.000,   1,   1,1.00294,   1.4173,   1
    88,'BUS_88      ', 220.0000,1,     0.000,     0.000,   1,   1,1.00294,   1.4173,   1
    89,'BUS_89      ', 220.0000,1,     0.000,     0.000,   1,   1,0.99457,   2.2440,   1
    90,'BUS_90      ', 220.0000,1,     0.000,     0.000,   1,   1,0.99597,   1.0102,   1
    91,'BUS_91      ', 220.0000,1,     0.000,     0.000,   1,   1,0.99350,   3.1548,   1
    92,'BUS_92      ', 400.0000,1,     0.000,     0.000,   1,   1,0.98968,  -2.5167,   1
    93,'BUS_93      ', 220.0000,2,     0.000,     0.000,   1,   1,1.00108,   4.1759,   1
    94,'BUS_94      ', 220.0000,1,     0.000,     0.000,   1,   1,1.00108,   4.1759,   1
    95,'BUS_95      ', 220.0000,2,     0.000,     0.000,   1,   1,1.00465,   3.4105,   1
    96,'BUS_96      ', 220.0000,1,     0.000,     0.000,   1,   1,1.00465,   3.4105,   1
    97,'BUS_97      ', 220.0000,2,     0.000,     0.000,   1,   1,1.00000,  -0.5629,   1
    98,'BUS_98      ', 400.0000,1,     0.000,     0.000,   1,   1,0.99264,   0.8412,   1
    99,'BUS_99      ', 400.0000,1,     0.000,     0.000,   1,   1,0.99264,   0.8412,   1
   100,'BUS_100     ', 400.0000,1,     0.000,     0.000,   1,   1,0.99445,  -1.3376,   1
   101,'BUS_101     ', 400.0000,1,     0.000,     0.000,   1,   1,0.99445,  -1.3376,   1
   102,'BUS_102     ', 220.0000,1,     0.000,     0.000,   1,   1,0.99619,   2.2310,   1
   103,'BUS_103     ', 220.0000,2,     0.000,     0.000,   1,   1,1.00000,   0.6274,   1
   104,'BUS_104     ', 220.0000,2,     0.000,     0.000,   1,   1,1.00000,   0.6274,   1
   105,'BUS_105     ', 400.0000,2,     0.000,     0.000,   1,   1,1.00000,  -2.6365,   1
   106,'BUS_106     ', 400.0000,1,     0.000,     0.000,   1,   1,1.00000,  -2.6365,   1
   107,'BUS_107     ', 220.0000,1,     0.000,     0.000,   1,   1,1.01110,  -0.9319,   1
   108,'BUS_108     ', 220.0000,1,     0.000,     0.000,   1,   1,1.01242,  -0.7419,   1
   109,'BUS_109     ', 220.0000,2,     0.000,     0.000,   1,   1,1.00000,   7.4689,   1
   110,'BUS_110     ', 220.0000,2,     0.000,     0.000,   1,   1,1.00000,   7.5051,   1
   111,'BUS_111     ', 220.0000,2,     0.000,     0.000,   1,   1,1.00000,  -0.1385,   1
   112,'BUS_112     ', 220.0000,1,     0.000,     0.000,   1,   1,1.00000,  -0.1385,   1
   113,'BUS_113     ', 220.0000,1,     0.000,     0.000,   1,   1,0.99966, -16.6722,   1
   114,'BUS_114     ', 220.0000,1,     0.000,     0.000,   1,   1,1.01277, -15.3975,   1
   115,'BUS_115     ', 400.0000,1,     0.000,     0.000,   1,   1,0.95347, -12.7132,   1
   116,'BUS_116     ', 400.0000,1,     0.000,     0.000,   1,   1,0.95347, -12.7132,   1
   117,'BUS_117     ', 220.0000,1,     0.000,     0.000,   1,   1,0.97873, -15.3683,   1
   118,'BUS_118     ', 220.0000,1,     0.000,     0.000,   1,   1,0.96915, -23.9765,   1
   119,'BUS_119     ', 220.0000,1,     0.000,     0.000,   1,   1,0.96915, -23.9765,   1
   120,'BUS_120     ', 220.0000,1,     0.000,     0.000,   1,   1,0.95632, -23.1953,   1
   121,'BUS_121     ', 220.0000,1,     0.000,     0.000,   1,   1,0.99881, -17.4792,   1
   122,'BUS_122     ', 220.0000,1,     0.000,     0.000,   1,   1,0.99881, -17.4792,   1
   123,'BUS_123     ', 220.0000,2,     0.000,     0.000,   1,   1,1.00000,  -2.8318,   1
   124,'BUS_124     ', 220.0000,2,     0.000,     0.000,   1,   1,1.00000,  -2.8318,   1
   125,'BUS_125     ', 220.0000,2,     0.000,     0.000,   1,   1,1.00000, -20.6301,   1
   126,'BUS_126     ', 220.0000,1,     0.000,     0.000,   1,   1,1.00000, -20.6301,   1
   127,'BUS_127     ', 400.0000,2,     0.000,     0.000,   1,   1,1.00000, -13.8175,   1
   128,'BUS_128     ', 400.0000,1,     0.000,     0.000,   1,   1,1.00000, -13.8175,   1
   129,'BUS_129     ', 220.0000,1,     0.000,     0.000,   1,   1,0.96672, -19.6078,   1
   130,'BUS_130     ', 220.0000,1,     0.000,     0.000,   1,   1,0.95525, -21.1355,   1
   131,'BUS_131     ', 220.0000,2,     0.000,     0.000,   1,   1,1.03658, -12.0824,   1
   132,'BUS_132     ', 220.0000,3,     0.000,     0.000,   1,   1,1.03658, -12.0824,   1
   133,'BUS_133     ', 400.0000,1,     0.000,     0.000,   1,   1,0.99073, -10.7277,   1
   134,'BUS_134     ', 400.0000,1,     0.000,     0.000,   1,   1,0.99073, -10.7277,   1
   135,'BUS_135     ', 220.0000,1,     0.000,     0.000,   1,   1,0.96828, -23.9477,   1
   136,'BUS_136     ', 220.0000,1,     0.000,     0.000,   1,   1,0.96828, -23.9477,   1
   137,'BUS_137     ', 400.0000,1,     0.000,     0.000,   1,   1,0.96198, -10.7599,   1
   138,'BUS_138     ', 400.0000,1,     0.000,     0.000,   1,   1,0.96198, -10.7599,   1
   139,'BUS_139     ', 220.0000,2,     0.000,     0.000,   1,   1,1.00000,  -2.9483,   1
   140,'BUS_140     ', 220.0000,2,     0.000,     0.000,   1,   1,1.00000,  -2.9483,   1
   141,'BUS_141     ', 220.0000,1,     0.000,     0.000,   1,   1,0.97532, -20.8973,   1
   142,'BUS_142     ', 220.0000,1,     0.000,     0.000,   1,   1,0.96760, -24.2052,   1
   143,'BUS_143     ', 220.0000,1,     0.000,     0.000,   1,   1,0.98653, -17.4248,   1
   144,'BUS_144     ', 220.0000,1,     0.000,     0.000,   1,   1,0.98653, -17.4248,   1
   145,'BUS_145     ', 400.0000,1,     0.000,     0.000,   1,   1,0.91327, -17.0532,   1
   146,'BUS_146     ', 400.0000,1,     0.000,     0.000,   1,   1,0.91327, -17.0532,   1
   147,'BUS_147     ', 220.0000,1,     0.000,     0.000,   1,   1,0.97365, -18.7254,   1
   148,'BUS_148     ', 220.0000,1,     0.000,     0.000,   1,   1,0.97365, -18.7254,   1
   149,'BUS_149     ', 220.0000,1,     0.000,     0.000,   1,   1,0.98242, -18.1583,   1
   150,'BUS_150     ', 220.0000,1,     0.000,     0.000,   1,   1,1.00210, -16.0959,   1
   151,'BUS_151     ', 220.0000,1,     0.000,     0.000,   1,   1,1.00210, -16.0959,   1
   152,'BUS_152     ', 220.0000,1,     0.000,     0.000,   1,   1,1.00133, -14.2979,   1
   153,'BUS_153     ', 220.0000,1,     0.000,     0.000,   1,   1,1.00133, -14.2979,   1
   154,'BUS_154     ', 220.0000,1,     0.000,     0.000,   1,   1,0.95737, -20.4316,   1
   155,'BUS_155     ', 220.0000,1,     0.000,     0.000,   1,   1,0.97356, -11.5440,   1
   156,'BUS_156     ', 220.0000,1,     0.000,     0.000,   1,   1,1.06617, -15.4846,   1
   157,'BUS_157     ', 400.0000,1,     0.000,     0.000,   1,   1,0.99038, -13.8255,   1
   158,'BUS_158     ', 400.0000,1,     0.000,     0.000,   1,   1,0.99038, -13.8255,   1
   159,'BUS_159     ', 400.0000,1,     0.000,     0.000,   1,   1,0.99003, -11.0442,   1
   160,'BUS_160     ', 400.0000,1,     0.000,     0.000,   1,   1,0.99003, -11.0442,   1
   161,'BUS_161     ', 220.0000,1,     0.000,     0.000,   1,   1,0.99790, -15.7620,   1
   162,'BUS_162     ', 220.0000,1,     0.000,     0.000,   1,   1,0.99790, -15.7620,   1
   163,'BUS_163     ', 220.0000,1,     0.000,     0.000,   1,   1,1.01786, -12.7999,   1
   164,'BUS_164     ', 220.0000,1,     0.000,     0.000,   1,   1,1.01786, -12.7999,   1
   165,'BUS_165     ', 400.0000,1,     0.000,     0.000,   1,   1,0.95706, -10.4198,   1
   166,'BUS_166     ', 220.0000,1,     0.000,     0.000,   1,   1,0.98428, -10.8201,   1
   167,'BUS_167     ', 220.0000,1,     0.000,     0.000,   1,   1,0.98428, -10.8201,   1
   168,'BUS_168     ', 400.0000,1,     0.000,     0.000,   1,   1,0.98324, -12.5630,   1
   169,'BUS_169     ', 400.0000,1,     0.000,     0.000,   1,   1,0.98324, -12.5630,   1
   170,'BUS_170     ', 220.0000,1,     0.000,     0.000,   1,   1,0.97289, -12.8739,   1
   171,'BUS_171     ', 220.0000,1,     0.000,     0.000,   1,   1,0.97289, -12.8739,   1
   172,'BUS_172     ', 220.0000,1,     0.000,     0.000,   1,   1,0.98494, -13.3477,   1
   173,'BUS_173     ', 220.0000,1,     0.000,     0.000,   1,   1,0.98494, -13.3477,   1
   174,'BUS_174     ', 220.0000,1,     0.000,     0.000,   1,   1,0.97098, -11.0149,   1
   175,'BUS_175     ', 220.0000,1,     0.000,     0.000,   1,   1,0.97098, -11.0149,   1
   176,'BUS_176     ', 400.0000,2,     0.000,     0.000,   1,   1,1.00000,  -9.5675,   1
   177,'BUS_177     ', 400.0000,2,     0.000,     0.000,   1,   1,1.00000,  -9.5675,   1
   178,'BUS_178     ', 220.0000,1,     0.000,     0.000,   1,   1,1.02876, -17.2492,   1
   179,'BUS_179     ', 220.0000,1,     0.000,     0.000,   1,   1,1.02876, -17.2492,   1
   180,'BUS_180     ', 400.0000,2,     0.000,     0.000,   1,   1,1.00000,  -5.0369,   1
   181,'BUS_181     ', 220.0000,2,     0.000,     0.000,   1,   1,1.00000,   7.5042,   1
   182,'BUS_182     ', 400.0000,2,     0.000,     0.000,   1,   1,1.00000, -10.4753,   1
   183,'BUS_183     ', 400.0000,1,     0.000,     0.000,   1,   1,1.02073,  -1.6168,   1
   184,'BUS_184     ', 220.0000,2,     0.000,     0.000,   1,   1,1.00000,  -1.3008,   1
   185,'BUS_185     ', 400.0000,2,     0.000,     0.000,   1,   1,1.00000,  -5.8257,   1
   186,'BUS_186     ', 220.0000,2,     0.000,     0.000,   1,   1,1.00000, -20.7540,   1
   187,'BUS_187     ', 110.0000,1,     0.000,     0.000,   1,   1,0.98057, -11.7033,   1
   188,'BUS_188     ', 110.0000,1,     0.000,     0.000,   1,   1,0.95303, -16.5135,   1
   189,'BUS_189     ', 110.0000,1,     0.000,     0.000,   1,   1,0.93292, -15.3599,   1
   190,'BUS_190     ', 110.0000,1,     0.000,     0.000,   1,   1,1.01922,  -0.0447,   1
   191,'BUS_191     ', 110.0000,1,     0.000,     0.000,   1,   1,0.99727,  -0.8171,   1
   192,'BUS_192     ', 110.0000,2,     0.000,     0.000,   1,   1,1.02499,  -8.0691,   1
   193,'BUS_193     ', 110.0000,1,     0.000,     0.000,   1,   1,1.02624,  -8.1211,   1
   194,'BUS_194     ', 110.0000,1,     0.000,     0.000,   1,   1,1.02425,  -8.2582,   1
   195,'BUS_195     ', 110.0000,1,     0.000,     0.000,   1,   1,0.99388, -12.3457,   1
   196,'BUS_196     ', 110.0000,2,     0.000,     0.000,   1,   1,0.97035, -23.8206,   1
   197,'BUS_197     ', 110.0000,1,     0.000,     0.000,   1,   1,0.98042,  -7.3525,   1
   198,'BUS_198     ', 110.0000,2,     0.000,     0.000,   1,   1,0.98734, -12.3026,   1
   199,'BUS_199     ', 110.0000,1,     0.000,     0.000,   1,   1,1.02235,  -2.1219,   1
   200,'BUS_200     ', 110.0000,1,     0.000,     0.000,   1,   1,1.02969, -13.5062,   1
   201,'BUS_201     ', 110.0000,1,     0.000,     0.000,   1,   1,0.99447, -12.6569,   1
   202,'BUS_202     ', 110.0000,1,     0.000,     0.000,   1,   1,1.00779, -10.0100,   1
   203,'BUS_203     ', 110.0000,1,     0.000,     0.000,   1,   1,0.98974, -12.4742,   1
   204,'BUS_204     ', 110.0000,1,     0.000,     0.000,   1,   1,1.00293,  -2.8319,   1
   205,'BUS_205     ', 110.0000,2,     0.000,     0.000,   1,   1,1.01213,  -0.9566,   1
   206,'BUS_206     ', 110.0000,1,     0.000,     0.000,   1,   1,0.97693, -13.1136,   1
   207,'BUS_207     ', 110.0000,1,     0.000,     0.000,   1,   1,0.99890,  -0.6508,   1
   208,'BUS_208     ', 110.0000,1,     0.000,     0.000,   1,   1,1.00735,  -4.8953,   1
   209,'BUS_209     ', 110.0000,1,     0.000,     0.000,   1,   1,0.99770, -14.5055,   1
   210,'BUS_210     ', 110.0000,1,     0.000,     0.000,   1,   1,1.01578,  -1.9580,   1
   211,'BUS_211     ', 110.0000,1,     0.000,     0.000,   1,   1,0.99575, -14.4905,   1
   212,'BUS_212     ', 110.0000,1,     0.000,     0.000,   1,   1,0.99247, -10.8090,   1
   213,'BUS_213     ', 110.0000,2,     0.000,     0.000,   1,   1,0.98191, -13.2941,   1
   214,'BUS_214     ', 110.0000,1,     0.000,     0.000,   1,   1,0.99798, -16.9327,   1
   215,'BUS_215     ', 110.0000,1,     0.000,     0.000,   1,   1,1.01031,  -1.3075,   1
   216,'BUS_216     ', 110.0000,1,     0.000,     0.000,   1,   1,1.05300,  -4.0656,   1
   217,'BUS_217     ', 110.0000,1,     0.000,     0.000,   1,   1,1.00696,  -6.2067,   1
   218,'BUS_218     ', 110.0000,1,     0.000,     0.000,   1,   1,0.98284, -14.0758,   1
   219,'BUS_219     ', 110.0000,1,     0.000,     0.000,   1,   1,0.99573, -12.8538,   1
   220,'BUS_220     ', 110.0000,1,     0.000,     0.000,   1,   1,0.97072, -13.8435,   1
   221,'BUS_221     ', 110.0000,1,     0.000,     0.000,   1,   1,0.93724, -19.0162,   1
   222,'BUS_222     ', 110.0000,1,     0.000,     0.000,   1,   1,1.02122, -11.6839,   1
   223,'BUS_223     ', 110.0000,1,     0.000,     0.000,   1,   1,0.98148,  -5.3499,   1
   224,'BUS_224     ', 110.0000,1,     0.000,     0.000,   1,   1,0.97909, -13.0648,   1
   225,'BUS_225     ', 110.0000,1,     0.000,     0.000,   1,   1,0.96053, -17.3832,   1
   226,'BUS_226     ', 110.0000,1,     0.000,     0.000,   1,   1,0.99453, -12.7792,   1
   227,'BUS_227     ', 110.0000,1,     0.000,     0.000,   1,   1,0.99450, -12.8348,   1
   228,'BUS_228     ', 110.0000,1,     0.000,     0.000,   1,   1,0.99425,  -1.2531,   1
   229,'BUS_229     ', 110.0000,1,     0.000,     0.000,   1,   1,0.99125,  -4.0535,   1
   230,'BUS_230     ', 110.0000,1,     0.000,     0.000,   1,   1,0.93369, -19.6989,   1
   231,'BUS_231     ', 110.0000,1,     0.000,     0.000,   1,   1,0.99612,  -9.7168,   1
   232,'BUS_232     ', 110.0000,1,     0.000,     0.000,   1,   1,0.97401,  -9.9537,   1
   233,'BUS_233     ', 110.0000,1,     0.000,     0.000,   1,   1,0.99451, -15.4055,   1
   234,'BUS_234     ', 110.0000,1,     0.000,     0.000,   1,   1,0.99916,  -0.4775,   1
   235,'BUS_235     ', 110.0000,1,     0.000,     0.000,   1,   1,1.00853,   0.5341,   1
   236,'BUS_236     ', 110.0000,1,     0.000,     0.000,   1,   1,0.97638, -12.8841,   1
   237,'BUS_237     ', 110.0000,1,     0.000,     0.000,   1,   1,0.99141, -11.8003,   1
   238,'BUS_238     ', 110.0000,1,     0.000,     0.000,   1,   1,1.02929, -11.2814,   1
   239,'BUS_239     ', 110.0000,1,     0.000,     0.000,   1,   1,1.00791, -10.1234,   1
   240,'BUS_240     ', 110.0000,1,     0.000,     0.000,   1,   1,0.94040, -18.3484,   1
   241,'BUS_241     ', 110.0000,1,     0.000,     0.000,   1,   1,0.98065, -12.4031,   1
   242,'BUS_242     ', 110.0000,1,     0.000,     0.000,   1,   1,0.97720, -11.9945,   1
   243,'BUS_243     ', 110.0000,1,     0.000,     0.000,   1,   1,1.01426,  -8.5899,   1
   244,'BUS_244     ', 110.0000,1,     0.000,     0.000,   1,   1,1.01491,  -9.8646,   1
   245,'BUS_245     ', 110.0000,1,     0.000,     0.000,   1,   1,1.00389,  -2.3271,   1
   246,'BUS_246     ', 110.0000,1,     0.000,     0.000,   1,   1,1.01577,  -1.4224,   1
   247,'BUS_247     ', 110.0000,1,     0.000,     0.000,   1,   1,0.98396,  -7.0420,   1
   248,'BUS_248     ', 110.0000,1,     0.000,     0.000,   1,   1,1.01581,  -8.8386,   1
   249,'BUS_249     ', 110.0000,1,     0.000,     0.000,   1,   1,1.00100,  -9.5306,   1
   250,'BUS_250     ', 110.0000,1,     0.000,     0.000,   1,   1,1.00724, -10.6357,   1
   251,'BUS_251     ', 110.0000,1,     0.000,     0.000,   1,   1,1.00731,   0.3013,   1
   252,'BUS_252     ', 110.0000,1,     0.000,     0.000,   1,   1,0.99468,  -1.1928,   1
   253,'BUS_253     ', 110.0000,1,     0.000,     0.000,   1,   1,1.00287,  -2.3699,   1
   254,'BUS_254     ', 110.0000,1,     0.000,     0.000,   1,   1,0.99227,  -3.5035,   1
   255,'BUS_255     ', 110.0000,1,     0.000,     0.000,   1,   1,0.99416, -12.2260,   1
   256,'BUS_256     ', 110.0000,1,     0.000,     0.000,   1,   1,1.01289, -10.0771,   1
   257,'BUS_257     ', 110.0000,1,     0.000,     0.000,   1,   1,0.98189, -12.8777,   1
   258,'BUS_258     ', 110.0000,1,     0.000,     0.000,   1,   1,0.96994,  -5.1711,   1
   259,'BUS_259     ', 110.0000,1,     0.000,     0.000,   1,   1,1.00464, -10.9256,   1
   260,'BUS_260     ', 110.0000,1,     0.000,     0.000,   1,   1,1.00005,  -9.2338,   1
   261,'BUS_261     ', 110.0000,1,     0.000,     0.000,   1,   1,1.01809,  -2.0670,   1
   262,'BUS_262     ', 110.0000,1,     0.000,     0.000,   1,   1,1.01782, -11.7882,   1
   263,'BUS_263     ', 110.0000,1,     0.000,     0.000,   1,   1,0.97076, -11.3602,   1
   264,'BUS_264     ', 110.0000,2,     0.000,     0.000,   1,   1,0.98700, -12.3691,   1
   265,'BUS_265     ', 110.0000,1,     0.000,     0.000,   1,   1,0.97193,  -5.2452,   1
   266,'BUS_266     ', 110.0000,1,     0.000,     0.000,   1,   1,1.00952,  -4.8894,   1
   267,'BUS_267     ', 110.0000,1,     0.000,     0.000,   1,   1,1.00033,  -2.7918,   1
   268,'BUS_268     ', 110.0000,1,     0.000,     0.000,   1,   1,1.01098,  -1.0806,   1
   269,'BUS_269     ', 110.0000,2,     0.000,     0.000,   1,   1,1.01541,  -9.1490,   1
   270,'BUS_270     ', 110.0000,1,     0.000,     0.000,   1,   1,1.01507,  -1.5432,   1
   271,'BUS_271     ', 110.0000,1,     0.000,     0.000,   1,   1,1.01301,  -3.2087,   1
   272,'BUS_272     ', 110.0000,1,     0.000,     0.000,   1,   1,1.01819,  -2.0532,   1
   273,'BUS_273     ', 110.0000,1,     0.000,     0.000,   1,   1,1.01030,  -1.3440,   1
   274,'BUS_274     ', 110.0000,1,     0.000,     0.000,   1,   1,1.00127,  -2.2814,   1
   275,'BUS_275     ', 110.0000,1,     0.000,     0.000,   1,   1,1.00009,  -2.7816,   1
   276,'BUS_276     ', 110.0000,1,     0.000,     0.000,   1,   1,0.99812,  -2.7041,   1
   277,'BUS_277     ', 110.0000,2,     0.000,     0.000,   1,   1,1.00000,  -2.4045,   1
   278,'BUS_278     ', 110.0000,2,     0.000,     0.000,   1,   1,1.00130,  -2.6626,   1
   279,'BUS_279     ', 110.0000,2,     0.000,     0.000,   1,   1,1.01139,  -0.8853,   1
   280,'BUS_280     ', 110.0000,1,     0.000,     0.000,   1,   1,1.00025,  -2.7881,   1
   281,'BUS_281     ', 110.0000,2,     0.000,     0.000,   1,   1,1.00299,  -2.1105,   1
   282,'BUS_282     ', 110.0000,2,     0.000,     0.000,   1,   1,1.01504,  -1.6500,   1
   283,'BUS_283     ', 110.0000,1,     0.000,     0.000,   1,   1,0.98319,  -4.1732,   1
   284,'BUS_284     ', 110.0000,1,     0.000,     0.000,   1,   1,1.01402,  -9.6933,   1
   285,'BUS_285     ', 110.0000,1,     0.000,     0.000,   1,   1,0.98374, -13.2684,   1
   286,'BUS_286     ', 110.0000,1,     0.000,     0.000,   1,   1,0.98087, -13.5123,   1
   287,'BUS_287     ', 110.0000,1,     0.000,     0.000,   1,   1,0.97604, -12.3446,   1
   288,'BUS_288     ', 110.0000,1,     0.000,     0.000,   1,   1,1.00175,  -2.2996,   1
   289,'BUS_289     ', 110.0000,2,     0.000,     0.000,   1,   1,1.00004,  -2.4229,   1
   290,'BUS_290     ', 110.0000,1,     0.000,     0.000,   1,   1,0.99913,  -9.7408,   1
   291,'BUS_291     ', 110.0000,1,     0.000,     0.000,   1,   1,1.01478,  -1.7492,   1
   292,'BUS_292     ', 110.0000,1,     0.000,     0.000,   1,   1,0.99857,  -2.5313,   1
   293,'BUS_293     ', 110.0000,1,     0.000,     0.000,   1,   1,0.99940,  -2.5707,   1
   294,'BUS_294     ', 110.0000,2,     0.000,     0.000,   1,   1,1.00020,  -9.5124,   1
   295,'BUS_295     ', 110.0000,1,     0.000,     0.000,   1,   1,0.98372, -12.5975,   1
   296,'BUS_296     ', 110.0000,1,     0.000,     0.000,   1,   1,0.99940,  -2.5759,   1
   297,'BUS_297     ', 110.0000,1,     0.000,     0.000,   1,   1,1.00581,  -3.8827,   1
   298,'BUS_298     ', 110.0000,1,     0.000,     0.000,   1,   1,1.00475,  -4.0530,   1
   299,'BUS_299     ', 110.0000,1,     0.000,     0.000,   1,   1,0.99819,  -2.6989,   1
   300,'BUS_300     ', 110.0000,1,     0.000,     0.000,   1,   1,0.97012,  -8.5895,   1
   301,'BUS_301     ', 110.0000,1,     0.000,     0.000,   1,   1,0.98825,  -4.2986,   1
   302,'BUS_302     ', 110.0000,1,     0.000,     0.000,   1,   1,0.98312, -12.6363,   1
   303,'BUS_303     ', 110.0000,1,     0.000,     0.000,   1,   1,0.98657, -17.8139,   1
   304,'BUS_304     ', 110.0000,1,     0.000,     0.000,   1,   1,1.01115,  -1.4216,   1
   305,'BUS_305     ', 110.0000,1,     0.000,     0.000,   1,   1,0.98912, -10.8970,   1
   306,'BUS_306     ', 110.0000,1,     0.000,     0.000,   1,   1,1.01235,  -8.5431,   1
   307,'BUS_307     ', 110.0000,1,     0.000,     0.000,   1,   1,0.97950, -12.5638,   1
   308,'BUS_308     ', 110.0000,1,     0.000,     0.000,   1,   1,1.01725,  -9.2788,   1
   309,'BUS_309     ', 110.0000,1,     0.000,     0.000,   1,   1,1.02446,  -8.7875,   1
   310,'BUS_310     ', 110.0000,1,     0.000,     0.000,   1,   1,1.00160,  -9.4854,   1
   311,'BUS_311     ', 110.0000,1,     0.000,     0.000,   1,   1,0.98114,  -9.6465,   1
   312,'BUS_312     ', 110.0000,1,     0.000,     0.000,   1,   1,0.98114,  -9.6465,   1
   313,'BUS_313     ', 110.0000,1,     0.000,     0.000,   1,   1,0.96603, -19.2259,   1
   314,'BUS_314     ', 110.0000,2,     0.000,     0.000,   1,   1,0.98530,  -9.7073,   1
   315,'BUS_315     ', 110.0000,1,     0.000,     0.000,   1,   1,0.99330, -16.5767,   1
   316,'BUS_316     ', 110.0000,1,     0.000,     0.000,   1,   1,1.00453,  -2.1959,   1
   317,'BUS_317     ', 110.0000,1,     0.000,     0.000,   1,   1,0.99945, -11.8411,   1
   318,'BUS_318     ', 110.0000,1,     0.000,     0.000,   1,   1,0.97447, -12.1999,   1
   319,'BUS_319     ', 110.0000,1,     0.000,     0.000,   1,   1,0.99608,  -0.9756,   1
   320,'BUS_320     ', 110.0000,1,     0.000,     0.000,   1,   1,1.00538, -10.8376,   1
   321,'BUS_321     ', 110.0000,1,     0.000,     0.000,   1,   1,0.99597,  -9.9588,   1
   322,'BUS_322     ', 110.0000,1,     0.000,     0.000,   1,   1,0.98431, -11.7922,   1
   323,'BUS_323     ', 110.0000,1,     0.000,     0.000,   1,   1,0.97432, -10.7160,   1
   324,'BUS_324     ', 110.0000,1,     0.000,     0.000,   1,   1,0.97608, -12.2486,   1
   325,'BUS_325     ', 110.0000,1,     0.000,     0.000,   1,   1,0.99998, -10.6452,   1
   326,'BUS_326     ', 110.0000,1,     0.000,     0.000,   1,   1,1.00668,  -5.2820,   1
   327,'BUS_327     ', 110.0000,1,     0.000,     0.000,   1,   1,1.00578,  -6.4900,   1
   328,'BUS_328     ', 110.0000,2,     0.000,     0.000,   1,   1,1.02635, -10.9653,   1
   329,'BUS_329     ', 110.0000,2,     0.000,     0.000,   1,   1,1.00000, -10.2808,   1
   330,'BUS_330     ', 110.0000,2,     0.000,     0.000,   1,   1,1.04634, -10.6498,   1
   331,'BUS_331     ', 110.0000,2,     0.000,     0.000,   1,   1,1.00236,  -9.5521,   1
   332,'BUS_332     ', 110.0000,1,     0.000,     0.000,   1,   1,1.03446,  -7.7788,   1
   333,'BUS_333     ', 110.0000,1,     0.000,     0.000,   1,   1,0.98443, -13.8210,   1
   334,'BUS_334     ', 110.0000,2,     0.000,     0.000,   1,   1,1.00120, -14.3883,   1
   335,'BUS_335     ', 110.0000,1,     0.000,     0.000,   1,   1,0.98756, -14.5972,   1