0,   100.00, 30, 0, 1,  60.00     / PSS(R)E 30 RAW created by rawd30  THU, AUG 24 2017  13:49
Polish test system
2383 BUSES TEST CASE
     1,'BUS_1       ', 220.0000,1,     0.000,     0.000,   1,   1,1.01181,   3.9515,   1
     2,'BUS_2       ', 220.0000,1,     0.000,     0.000,   1,   1,0.99866,   5.0457,   1
     3,'BUS_3       ', 220.0000,1,     0.000,     0.000,   1,   1,0.97652, -10.1357,   1
     4,'BUS_4       ', 220.0000,1,     0.000,     0.000,   1,   1,0.98218,   1.1811,   1
     5,'BUS_5       ', 220.0000,1,     0.000,     0.000,   1,   1,0.99186,  -5.3911,   1
     6,'BUS_6       ', 400.0000,1,     0.000,     0.000,   1,   1,0.98318,  -2.1307,   1
     7,'BUS_7       ', 220.0000,1,     0.000,     0.000,   1,   1,0.97307,  -6.5944,   1
     8,'BUS_8       ', 400.0000,1,     0.000,     0.000,   1,   1,0.99401,  -1.6232,   1
     9,'BUS_9       ', 400.0000,1,     0.000,     0.000,   1,   1,0.98089,  -4.2099,   1
    10,'BUS_10      ', 220.0000,2,     0.000,     0.000,   1,   1,1.00000,  -4.3780,   1
    11,'BUS_11      ', 220.0000,1,     0.000,     0.000,   1,   1,0.98862,   2.0658,   1
    12,'BUS_12      ', 220.0000,1,     0.000,     0.000,   1,   1,0.96816,  -7.1052,   1
    13,'BUS_13      ', 220.0000,1,     0.000,     0.000,   1,   1,0.97634,  -6.4179,   1
    14,'BUS_14      ', 220.0000,1,     0.000,     0.000,   1,   1,0.98196,   2.5846,   1
    15,'BUS_15      ', 400.0000,1,     0.000,     0.000,   1,   1,0.97584,  -5.4368,   1
    16,'BUS_16      ', 220.0000,2,     0.000,     0.000,   1,   1,1.01447,   4.3831,   1
    17,'BUS_17      ', 220.0000,2,     0.000,     0.000,   1,   1,1.00346,   5.7526,   1
    18,'BUS_18      ', 400.0000,3,     0.000,     0.000,   1,   1,1.00000,   0.0000,   1
    19,'BUS_19      ', 220.0000,1,     0.000,     0.000,   1,   1,0.97503,  -7.1314,   1
    20,'BUS_20      ', 400.0000,1,     0.000,     0.000,   1,   1,0.99858,  -1.1696,   1
    21,'BUS_21      ', 220.0000,1,     0.000,     0.000,   1,   1,0.97299,  -7.0108,   1
    22,'BUS_22      ', 220.0000,1,     0.000,     0.000,   1,   1,0.97985,   0.6540,   1
    23,'BUS_23      ', 220.0000,1,     0.000,     0.000,   1,   1,0.99930,  -1.5169,   1
    24,'BUS_24      ', 220.0000,1,     0.000,     0.000,   1,   1,1.01414,   0.0425,   1
    25,'BUS_25      ', 220.0000,1,     0.000,     0.000,   1,   1,1.01418,   1.8369,   1
    26,'BUS_26      ', 220.0000,1,     0.000,     0.000,   1,   1,0.98579,  -3.5392,   1
    27,'BUS_27      ', 220.0000,1,     0.000,     0.000,   1,   1,0.99924,  -1.3398,   1
    28,'BUS_28      ', 220.0000,1,     0.000,     0.000,   1,   1,0.99924,  -1.3398,   1
    29,'BUS_29      ', 220.0000,2,     0.000,     0.000,   1,   1,1.00768,   0.4784,   1
    30,'BUS_30      ', 220.0000,2,     0.000,     0.000,   1,   1,1.00768,   0.4784,   1
    31,'BUS_31      ', 400.0000,2,     0.000,     0.000,   1,   1,0.99317,   2.6834,   1
    32,'BUS_32      ', 400.0000,1,     0.000,     0.000,   1,   1,0.99317,   2.6834,   1
    33,'BUS_33      ', 220.0000,1,     0.000,     0.000,   1,   1,0.99439,  -1.9694,   1
    34,'BUS_34      ', 400.0000,1,     0.000,     0.000,   1,   1,1.01456,  -0.4875,   1
    35,'BUS_35      ', 400.0000,1,     0.000,     0.000,   1,   1,1.01456,  -0.4875,   1
    36,'BUS_36      ', 400.0000,1,     0.000,     0.000,   1,   1,0.97056,   0.2377,   1
    37,'BUS_37      ', 220.0000,1,     0.000,     0.000,   1,   1,0.99183,  -1.6166,   1
    38,'BUS_38      ', 220.0000,1,     0.000,     0.000,   1,   1,0.99183,  -1.6166,   1
    39,'BUS_39      ', 400.0000,1,     0.000,     0.000,   1,   1,0.98979,   2.3076,   1
    40,'BUS_40      ', 400.0000,1,     0.000,     0.000,   1,   1,0.98979,   2.3076,   1
    41,'BUS_41      ', 220.0000,2,     0.000,     0.000,   1,   1,1.01936,   3.3952,   1
    42,'BUS_42      ', 220.0000,2,     0.000,     0.000,   1,   1,1.01936,   3.3952,   1
    43,'BUS_43      ', 400.0000,2,     0.000,     0.000,   1,   1,1.00000,   3.4945,   1
    44,'BUS_44      ', 400.0000,2,     0.000,     0.000,   1,   1,1.00000,   3.4945,   1
    45,'BUS_45      ', 220.0000,2,     0.000,     0.000,   1,   1,0.99770,  -0.8923,   1
    46,'BUS_46      ', 220.0000,1,     0.000,     0.000,   1,   1,0.99770,  -0.8923,   1
    47,'BUS_47      ', 220.0000,1,     0.000,     0.000,   1,   1,0.99804,  -1.4291,   1
    48,'BUS_48      ', 220.0000,1,     0.000,     0.000,   1,   1,0.99792,  -1.1239,   1
    49,'BUS_49      ', 220.0000,1,     0.000,     0.000,   1,   1,0.99792,  -1.1239,   1
    50,'BUS_50      ', 400.0000,1,     0.000,     0.000,   1,   1,1.00257,   1.0209,   1
    51,'BUS_51      ', 400.0000,1,     0.000,     0.000,   1,   1,1.00257,   1.0209,   1
    52,'BUS_52      ', 220.0000,1,     0.000,     0.000,   1,   1,1.00505,   0.3797,   1
    53,'BUS_53      ', 220.0000,1,     0.000,     0.000,   1,   1,1.00679,   0.4669,   1
    54,'BUS_54      ', 220.0000,1,     0.000,     0.000,   1,   1,1.01449,   1.8725,   1
    55,'BUS_55      ', 220.0000,1,     0.000,     0.000,   1,   1,0.99096,  -0.3957,   1
    56,'BUS_56      ', 220.0000,1,     0.000,     0.000,   1,   1,1.01055,  -1.1470,   1
    57,'BUS_57      ', 220.0000,1,     0.000,     0.000,   1,   1,1.01897,   0.6772,   1
    58,'BUS_58      ', 220.0000,1,     0.000,     0.000,   1,   1,1.01919,   0.6776,   1
    59,'BUS_59      ', 220.0000,1,     0.000,     0.000,   1,   1,0.99516,   4.4401,   1
    60,'BUS_60      ', 220.0000,1,     0.000,     0.000,   1,   1,0.99806,  -1.6246,   1
    61,'BUS_61      ', 220.0000,1,     0.000,     0.000,   1,   1,0.99894,   6.5076,   1
    62,'BUS_62      ', 220.0000,1,     0.000,     0.000,   1,   1,0.99894,   6.5076,   1
    63,'BUS_63      ', 220.0000,2,     0.000,     0.000,   1,   1,1.00000,   4.8364,   1
    64,'BUS_64      ', 220.0000,2,     0.000,     0.000,   1,   1,1.00211,   4.7202,   1
    65,'BUS_65      ', 220.0000,1,     0.000,     0.000,   1,   1,0.99419,   2.0732,   1
    66,'BUS_66      ', 220.0000,1,     0.000,     0.000,   1,   1,1.03789,  -5.2055,   1
    67,'BUS_67      ', 400.0000,2,     0.000,     0.000,   1,   1,1.00000,  -3.7626,   1
    68,'BUS_68      ', 220.0000,1,     0.000,     0.000,   1,   1,1.02233,  -4.1357,   1
    69,'BUS_69      ', 220.0000,1,     0.000,     0.000,   1,   1,0.99802,   1.8514,   1
    70,'BUS_70      ', 220.0000,1,     0.000,     0.000,   1,   1,1.01273,  -0.4671,   1
    71,'BUS_71      ', 220.0000,1,     0.000,     0.000,   1,   1,0.99591,   1.1080,   1
    72,'BUS_72      ', 220.0000,1,     0.000,     0.000,   1,   1,0.99591,   1.1080,   1
    73,'BUS_73      ', 220.0000,1,     0.000,     0.000,   1,   1,1.01689,   0.2251,   1
    74,'BUS_74      ', 220.0000,1,     0.000,     0.000,   1,   1,1.01503,  -0.4590,   1
    75,'BUS_75      ', 400.0000,1,     0.000,     0.000,   1,   1,0.98949,  -0.4877,   1
    76,'BUS_76      ', 400.0000,1,     0.000,     0.000,   1,   1,0.98949,  -0.4877,   1
    77,'BUS_77      ', 220.0000,1,     0.000,     0.000,   1,   1,0.99540,   0.2978,   1
    78,'BUS_78      ', 220.0000,1,     0.000,     0.000,   1,   1,1.00327,  -2.7931,   1
    79,'BUS_79      ', 220.0000,1,     0.000,     0.000,   1,   1,1.00250,   2.9838,   1
    80,'BUS_80      ', 220.0000,1,     0.000,     0.000,   1,   1,1.01956,   0.7276,   1
    81,'BUS_81      ', 220.0000,1,     0.000,     0.000,   1,   1,1.01956,   0.7276,   1
    82,'BUS_82      ', 220.0000,1,     0.000,     0.000,   1,   1,0.99418,   5.1394,   1
    83,'BUS_83      ', 220.0000,2,     0.000,     0.000,   1,   1,1.00000,   1.5955,   1
    84,'BUS_84      ', 220.0000,2,     0.000,     0.000,   1,   1,1.00000,   1.5955,   1
    85,'BUS_85      ', 220.0000,2,     0.000,     0.000,   1,   1,1.00000,   0.2591,   1
    86,'BUS_86      ', 220.0000,2,     0.000,     0.000,   1,   1,1.00000,   0.2591,   1
    87,'BUS_87      ', 220.0000,1,     0.000,     0.000,   1,   1,1.00315,   1.3324,   1
    88,'BUS_88      ', 220.0000,1,     0.000,     0.000,   1,   1,1.00315,   1.3324,   1
    89,'BUS_89      ', 220.0000,1,     0.000,     0.000,   1,   1,0.99370,   1.3350,   1
    90,'BUS_90      ', 220.0000,1,     0.000,     0.000,   1,   1,0.99579,   0.4173,   1
    91,'BUS_91      ', 220.0000,1,     0.000,     0.000,   1,   1,0.99339,   2.7506,   1
    92,'BUS_92      ', 400.0000,1,     0.000,     0.000,   1,   1,0.98967,  -2.5457,   1
    93,'BUS_93      ', 220.0000,2,     0.000,     0.000,   1,   1,1.00104,   3.8185,   1
    94,'BUS_94      ', 220.0000,1,     0.000,     0.000,   1,   1,1.00104,   3.8185,   1
    95,'BUS_95      ', 220.0000,2,     0.000,     0.000,   1,   1,1.00465,   2.5917,   1
    96,'BUS_96      ', 220.0000,1,     0.000,     0.000,   1,   1,1.00465,   2.5917,   1
    97,'BUS_97      ', 220.0000,2,     0.000,     0.000,   1,   1,1.00000,  -1.1279,   1
    98,'BUS_98      ', 400.0000,1,     0.000,     0.000,   1,   1,0.99254,   1.0475,   1
    99,'BUS_99      ', 400.0000,1,     0.000,     0.000,   1,   1,0.99254,   1.0475,   1
   100,'BUS_100     ', 400.0000,1,     0.000,     0.000,   1,   1,0.99440,  -1.2528,   1
   101,'BUS_101     ', 400.0000,1,     0.000,     0.000,   1,   1,0.99440,  -1.2528,   1
   102,'BUS_102     ', 220.0000,1,     0.000,     0.000,   1,   1,0.99538,   1.2623,   1
   103,'BUS_103     ', 220.0000,2,     0.000,     0.000,   1,   1,1.00000,   0.0649,   1
   104,'BUS_104     ', 220.0000,2,     0.000,     0.000,   1,   1,1.00000,   0.0649,   1
   105,'BUS_105     ', 400.0000,2,     0.000,     0.000,   1,   1,1.00000,  -2.7805,   1
   106,'BUS_106     ', 400.0000,1,     0.000,     0.000,   1,   1,1.00000,  -2.7805,   1
   107,'BUS_107     ', 220.0000,1,     0.000,     0.000,   1,   1,1.01095,  -0.7628,   1
   108,'BUS_108     ', 220.0000,1,     0.000,     0.000,   1,   1,1.01223,  -0.5618,   1
   109,'BUS_109     ', 220.0000,2,     0.000,     0.000,   1,   1,1.00000,   7.4004,   1
   110,'BUS_110     ', 220.0000,2,     0.000,     0.000,   1,   1,1.00000,   7.4004,   1
   111,'BUS_111     ', 220.0000,2,     0.000,     0.000,   1,   1,1.00000,   1.3093,   1
   112,'BUS_112     ', 220.0000,1,     0.000,     0.000,   1,   1,1.00000,   1.3093,   1
   113,'BUS_113     ', 220.0000,1,     0.000,     0.000,   1,   1,1.00179, -16.3004,   1
   114,'BUS_114     ', 220.0000,1,     0.000,     0.000,   1,   1,1.01432, -15.1652,   1
   115,'BUS_115     ', 400.0000,1,     0.000,     0.000,   1,   1,0.95596, -12.1902,   1
   116,'BUS_116     ', 400.0000,1,     0.000,     0.000,   1,   1,0.95596, -12.1902,   1
   117,'BUS_117     ', 220.0000,1,     0.000,     0.000,   1,   1,0.97916, -14.0267,   1
   118,'BUS_118     ', 220.0000,1,     0.000,     0.000,   1,   1,0.96914, -22.1927,   1
   119,'BUS_119     ', 220.0000,1,     0.000,     0.000,   1,   1,0.96914, -22.1927,   1
   120,'BUS_120     ', 220.0000,1,     0.000,     0.000,   1,   1,0.95695, -21.8354,   1
   121,'BUS_121     ', 220.0000,1,     0.000,     0.000,   1,   1,1.00122, -16.9943,   1
   122,'BUS_122     ', 220.0000,1,     0.000,     0.000,   1,   1,1.00122, -16.9943,   1
   123,'BUS_123     ', 220.0000,2,     0.000,     0.000,   1,   1,1.00000,  -1.3595,   1
   124,'BUS_124     ', 220.0000,2,     0.000,     0.000,   1,   1,1.00000,  -1.3595,   1
   125,'BUS_125     ', 220.0000,2,     0.000,     0.000,   1,   1,1.00000, -18.8253,   1
   126,'BUS_126     ', 220.0000,1,     0.000,     0.000,   1,   1,1.00000, -18.8253,   1
   127,'BUS_127     ', 400.0000,2,     0.000,     0.000,   1,   1,1.00000, -12.1863,   1
   128,'BUS_128     ', 400.0000,1,     0.000,     0.000,   1,   1,1.00000, -12.1863,   1
   129,'BUS_129     ', 220.0000,1,     0.000,     0.000,   1,   1,0.96907, -18.4872,   1
   130,'BUS_130     ', 220.0000,1,     0.000,     0.000,   1,   1,0.95704, -20.2652,   1
   131,'BUS_131     ', 220.0000,2,     0.000,     0.000,   1,   1,1.03697, -12.0824,   1
   132,'BUS_132     ', 220.0000,2,     0.000,     0.000,   1,   1,1.03697, -12.0824,   1
   133,'BUS_133     ', 400.0000,1,     0.000,     0.000,   1,   1,0.99088, -10.5456,   1
   134,'BUS_134     ', 400.0000,1,     0.000,     0.000,   1,   1,0.99088, -10.5456,   1
   135,'BUS_135     ', 220.0000,1,     0.000,     0.000,   1,   1,0.96831, -22.1743,   1
   136,'BUS_136     ', 220.0000,1,     0.000,     0.000,   1,   1,0.96831, -22.1743,   1
   137,'BUS_137     ', 400.0000,1,     0.000,     0.000,   1,   1,0.96373, -10.3229,   1
   138,'BUS_138     ', 400.0000,1,     0.000,     0.000,   1,   1,0.96373, -10.3229,   1
   139,'BUS_139     ', 220.0000,2,     0.000,     0.000,   1,   1,1.00000,  -1.4633,   1
   140,'BUS_140     ', 220.0000,2,     0.000,     0.000,   1,   1,1.00000,  -1.4633,   1
   141,'BUS_141     ', 220.0000,1,     0.000,     0.000,   1,   1,0.97586, -19.5590,   1
   142,'BUS_142     ', 220.0000,1,     0.000,     0.000,   1,   1,0.96760, -22.4235,   1
   143,'BUS_143     ', 220.0000,1,     0.000,     0.000,   1,   1,0.98743, -16.1248,   1
   144,'BUS_144     ', 220.0000,1,     0.000,     0.000,   1,   1,0.98743, -16.1248,   1
   145,'BUS_145     ', 400.0000,1,     0.000,     0.000,   1,   1,0.91360, -15.6483,   1
   146,'BUS_146     ', 400.0000,1,     0.000,     0.000,   1,   1,0.91360, -15.6483,   1
   147,'BUS_147     ', 220.0000,1,     0.000,     0.000,   1,   1,0.97779, -17.7974,   1
   148,'BUS_148     ', 220.0000,1,     0.000,     0.000,   1,   1,0.97779, -17.7974,   1
   149,'BUS_149     ', 220.0000,1,     0.000,     0.000,   1,   1,0.98327, -16.8652,   1
   150,'BUS_150     ', 220.0000,1,     0.000,     0.000,   1,   1,1.00428, -15.7274,   1
   151,'BUS_151     ', 220.0000,1,     0.000,     0.000,   1,   1,1.00428, -15.7274,   1
   152,'BUS_152     ', 220.0000,1,     0.000,     0.000,   1,   1,1.00318, -13.9400,   1
   153,'BUS_153     ', 220.0000,1,     0.000,     0.000,   1,   1,1.00318, -13.9400,   1
   154,'BUS_154     ', 220.0000,1,     0.000,     0.000,   1,   1,0.96083, -19.5185,   1
   155,'BUS_155     ', 220.0000,1,     0.000,     0.000,   1,   1,0.97341, -10.2176,   1
   156,'BUS_156     ', 220.0000,1,     0.000,     0.000,   1,   1,1.06626, -14.0142,   1
   157,'BUS_157     ', 400.0000,1,     0.000,     0.000,   1,   1,0.99041, -12.3185,   1
   158,'BUS_158     ', 400.0000,1,     0.000,     0.000,   1,   1,0.99041, -12.3185,   1
   159,'BUS_159     ', 400.0000,1,     0.000,     0.000,   1,   1,0.99006,  -9.7055,   1
   160,'BUS_160     ', 400.0000,1,     0.000,     0.000,   1,   1,0.99006,  -9.7055,   1
   161,'BUS_161     ', 220.0000,1,     0.000,     0.000,   1,   1,0.99790, -14.4000,   1
   162,'BUS_162     ', 220.0000,1,     0.000,     0.000,   1,   1,0.99790, -14.4000,   1
   163,'BUS_163     ', 220.0000,1,     0.000,     0.000,   1,   1,1.01788, -11.6216,   1
   164,'BUS_164     ', 220.0000,1,     0.000,     0.000,   1,   1,1.01788, -11.6216,   1
   165,'BUS_165     ', 400.0000,1,     0.000,     0.000,   1,   1,0.95747,  -9.3424,   1
   166,'BUS_166     ', 220.0000,1,     0.000,     0.000,   1,   1,0.98411,  -9.4894,   1
   167,'BUS_167     ', 220.0000,1,     0.000,     0.000,   1,   1,0.98411,  -9.4894,   1
   168,'BUS_168     ', 400.0000,1,     0.000,     0.000,   1,   1,0.98318, -11.2997,   1
   169,'BUS_169     ', 400.0000,1,     0.000,     0.000,   1,   1,0.98318, -11.2997,   1
   170,'BUS_170     ', 220.0000,1,     0.000,     0.000,   1,   1,0.97317, -11.8892,   1
   171,'BUS_171     ', 220.0000,1,     0.000,     0.000,   1,   1,0.97317, -11.8892,   1
   172,'BUS_172     ', 220.0000,1,     0.000,     0.000,   1,   1,0.98486, -12.1587,   1
   173,'BUS_173     ', 220.0000,1,     0.000,     0.000,   1,   1,0.98486, -12.1587,   1
   174,'BUS_174     ', 220.0000,1,     0.000,     0.000,   1,   1,0.97075,  -9.7870,   1
   175,'BUS_175     ', 220.0000,1,     0.000,     0.000,   1,   1,0.97075,  -9.7870,   1
   176,'BUS_176     ', 400.0000,2,     0.000,     0.000,   1,   1,1.00000,  -8.1273,   1
   177,'BUS_177     ', 400.0000,2,     0.000,     0.000,   1,   1,1.00000,  -8.1273,   1
   178,'BUS_178     ', 220.0000,1,     0.000,     0.000,   1,   1,1.02887, -15.8229,   1
   179,'BUS_179     ', 220.0000,1,     0.000,     0.000,   1,   1,1.02887, -15.8229,   1
   180,'BUS_180     ', 400.0000,2,     0.000,     0.000,   1,   1,1.00000,  -5.2920,   1
   181,'BUS_181     ', 220.0000,2,     0.000,     0.000,   1,   1,1.00000,   8.1380,   1
   182,'BUS_182     ', 400.0000,2,     0.000,     0.000,   1,   1,1.00000, -10.2925,   1
   183,'BUS_183     ', 400.0000,1,     0.000,     0.000,   1,   1,1.02075,  -1.3449,   1
   184,'BUS_184     ', 220.0000,2,     0.000,     0.000,   1,   1,1.00000,  -1.7679,   1
   185,'BUS_185     ', 400.0000,2,     0.000,     0.000,   1,   1,1.00000,  -6.0006,   1
   186,'BUS_186     ', 220.0000,2,     0.000,     0.000,   1,   1,1.00000, -18.9584,   1
   187,'BUS_187     ', 110.0000,1,     0.000,     0.000,   1,   1,0.98031, -11.1669,   1
   188,'BUS_188     ', 110.0000,1,     0.000,     0.000,   1,   1,0.95311, -15.8166,   1
   189,'BUS_189     ', 110.0000,1,     0.000,     0.000,   1,   1,0.93267, -14.7902,   1
   190,'BUS_190     ', 110.0000,1,     0.000,     0.000,   1,   1,1.01895,   0.6726,   1
   191,'BUS_191     ', 110.0000,1,     0.000,     0.000,   1,   1,0.99723,   0.1962,   1
   192,'BUS_192     ', 110.0000,2,     0.000,     0.000,   1,   1,1.02499,  -7.5070,   1
   193,'BUS_193     ', 110.0000,1,     0.000,     0.000,   1,   1,1.02624,  -7.5599,   1
   194,'BUS_194     ', 110.0000,1,     0.000,     0.000,   1,   1,1.02424,  -7.6955,   1
   195,'BUS_195     ', 110.0000,1,     0.000,     0.000,   1,   1,0.99386, -11.6875,   1
   196,'BUS_196     ', 110.0000,2,     0.000,     0.000,   1,   1,0.97234, -23.2157,   1
   197,'BUS_197     ', 110.0000,1,     0.000,     0.000,   1,   1,0.98020,  -6.5521,   1
   198,'BUS_198     ', 110.0000,2,     0.000,     0.000,   1,   1,0.98734, -11.5869,   1
   199,'BUS_199     ', 110.0000,1,     0.000,     0.000,   1,   1,1.02240,  -1.2419,   1
   200,'BUS_200     ', 110.0000,1,     0.000,     0.000,   1,   1,1.02996, -12.7324,   1
   201,'BUS_201     ', 110.0000,1,     0.000,     0.000,   1,   1,0.99446, -12.0101,   1
   202,'BUS_202     ', 110.0000,1,     0.000,     0.000,   1,   1,1.00772,  -9.4578,   1
   203,'BUS_203     ', 110.0000,1,     0.000,     0.000,   1,   1,0.98968, -11.7291,   1
   204,'BUS_204     ', 110.0000,1,     0.000,     0.000,   1,   1,1.00303,  -1.9305,   1
   205,'BUS_205     ', 110.0000,2,     0.000,     0.000,   1,   1,1.01214,   0.1163,   1
   206,'BUS_206     ', 110.0000,1,     0.000,     0.000,   1,   1,0.97673, -12.4630,   1
   207,'BUS_207     ', 110.0000,1,     0.000,     0.000,   1,   1,0.99885,   0.3626,   1
   208,'BUS_208     ', 110.0000,1,     0.000,     0.000,   1,   1,1.00732,  -4.2974,   1
   209,'BUS_209     ', 110.0000,1,     0.000,     0.000,   1,   1,0.99758, -13.8341,   1
   210,'BUS_210     ', 110.0000,1,     0.000,     0.000,   1,   1,1.01555,  -1.0279,   1
   211,'BUS_211     ', 110.0000,1,     0.000,     0.000,   1,   1,0.99568, -13.8102,   1
   212,'BUS_212     ', 110.0000,1,     0.000,     0.000,   1,   1,0.99231, -10.2715,   1
   213,'BUS_213     ', 110.0000,2,     0.000,     0.000,   1,   1,0.98184, -12.6600,   1
   214,'BUS_214     ', 110.0000,1,     0.000,     0.000,   1,   1,0.99815, -16.0192,   1
   215,'BUS_215     ', 110.0000,1,     0.000,     0.000,   1,   1,1.01009,  -0.3093,   1
   216,'BUS_216     ', 110.0000,1,     0.000,     0.000,   1,   1,1.05276,  -3.7146,   1
   217,'BUS_217     ', 110.0000,1,     0.000,     0.000,   1,   1,1.00645,  -5.8050,   1
   218,'BUS_218     ', 110.0000,1,     0.000,     0.000,   1,   1,0.98295, -13.4200,   1
   219,'BUS_219     ', 110.0000,1,     0.000,     0.000,   1,   1,0.99582, -12.2025,   1
   220,'BUS_220     ', 110.0000,1,     0.000,     0.000,   1,   1,0.97076, -13.1322,   1
   221,'BUS_221     ', 110.0000,1,     0.000,     0.000,   1,   1,0.93737, -18.3362,   1
   222,'BUS_222     ', 110.0000,1,     0.000,     0.000,   1,   1,1.02117, -10.9877,   1
   223,'BUS_223     ', 110.0000,1,     0.000,     0.000,   1,   1,0.98091,  -4.8402,   1
   224,'BUS_224     ', 110.0000,1,     0.000,     0.000,   1,   1,0.97877, -12.4198,   1
   225,'BUS_225     ', 110.0000,1,     0.000,     0.000,   1,   1,0.96073, -16.5485,   1
   226,'BUS_226     ', 110.0000,1,     0.000,     0.000,   1,   1,0.99459, -12.1511,   1
   227,'BUS_227     ', 110.0000,1,     0.000,     0.000,   1,   1,0.99454, -12.2015,   1
   228,'BUS_228     ', 110.0000,1,     0.000,     0.000,   1,   1,0.99421,  -0.2399,   1
   229,'BUS_229     ', 110.0000,1,     0.000,     0.000,   1,   1,0.99135,  -3.1519,   1
   230,'BUS_230     ', 110.0000,1,     0.000,     0.000,   1,   1,0.93382, -19.0187,   1
   231,'BUS_231     ', 110.0000,1,     0.000,     0.000,   1,   1,0.99614,  -9.0336,   1
   232,'BUS_232     ', 110.0000,1,     0.000,     0.000,   1,   1,0.97406,  -9.2821,   1
   233,'BUS_233     ', 110.0000,1,     0.000,     0.000,   1,   1,0.99443, -14.6712,   1
   234,'BUS_234     ', 110.0000,1,     0.000,     0.000,   1,   1,0.99906,   0.5216,   1
   235,'BUS_235     ', 110.0000,1,     0.000,     0.000,   1,   1,1.00796,   1.1262,   1
   236,'BUS_236     ', 110.0000,1,     0.000,     0.000,   1,   1,0.97633, -12.2267,   1
   237,'BUS_237     ', 110.0000,1,     0.000,     0.000,   1,   1,0.99147, -10.9593,   1
   238,'BUS_238     ', 110.0000,1,     0.000,     0.000,   1,   1,1.02924, -10.5971,   1
   239,'BUS_239     ', 110.0000,1,     0.000,     0.000,   1,   1,1.00787,  -9.5685,   1
   240,'BUS_240     ', 110.0000,1,     0.000,     0.000,   1,   1,0.94053, -17.6686,   1
   241,'BUS_241     ', 110.0000,1,     0.000,     0.000,   1,   1,0.98052, -11.7758,   1
   242,'BUS_242     ', 110.0000,1,     0.000,     0.000,   1,   1,0.97722, -11.2809,   1
   243,'BUS_243     ', 110.0000,1,     0.000,     0.000,   1,   1,1.01414,  -7.9575,   1
   244,'BUS_244     ', 110.0000,1,     0.000,     0.000,   1,   1,1.01486,  -9.2226,   1
   245,'BUS_245     ', 110.0000,1,     0.000,     0.000,   1,   1,1.00390,  -1.4856,   1
   246,'BUS_246     ', 110.0000,1,     0.000,     0.000,   1,   1,1.01550,  -0.4676,   1
   247,'BUS_247     ', 110.0000,1,     0.000,     0.000,   1,   1,0.98374,  -6.2415,   1
   248,'BUS_248     ', 110.0000,1,     0.000,     0.000,   1,   1,1.01572,  -8.2870,   1
   249,'BUS_249     ', 110.0000,1,     0.000,     0.000,   1,   1,1.00077,  -9.0003,   1
   250,'BUS_250     ', 110.0000,1,     0.000,     0.000,   1,   1,1.00718,  -9.9992,   1
   251,'BUS_251     ', 110.0000,1,     0.000,     0.000,   1,   1,1.00673,   0.8931,   1
   252,'BUS_252     ', 110.0000,1,     0.000,     0.000,   1,   1,0.99459,  -0.1938,   1
   253,'BUS_253     ', 110.0000,1,     0.000,     0.000,   1,   1,1.00292,  -1.5299,   1
   254,'BUS_254     ', 110.0000,1,     0.000,     0.000,   1,   1,0.99226,  -2.6948,   1
   255,'BUS_255     ', 110.0000,1,     0.000,     0.000,   1,   1,0.99404, -11.5836,   1
   256,'BUS_256     ', 110.0000,1,     0.000,     0.000,   1,   1,1.01292,  -9.4932,   1
   257,'BUS_257     ', 110.0000,1,     0.000,     0.000,   1,   1,0.98177, -12.2679,   1
   258,'BUS_258     ', 110.0000,1,     0.000,     0.000,   1,   1,0.96980,  -4.0202,   1
   259,'BUS_259     ', 110.0000,1,     0.000,     0.000,   1,   1,1.00458, -10.2892,   1
   260,'BUS_260     ', 110.0000,1,     0.000,     0.000,   1,   1,1.00007,  -8.5587,   1
   261,'BUS_261     ', 110.0000,1,     0.000,     0.000,   1,   1,1.01788,  -1.1450,   1
   262,'BUS_262     ', 110.0000,1,     0.000,     0.000,   1,   1,1.01777, -11.0864,   1
   263,'BUS_263     ', 110.0000,1,     0.000,     0.000,   1,   1,0.97013, -10.8683,   1
   264,'BUS_264     ', 110.0000,2,     0.000,     0.000,   1,   1,0.98705, -11.5469,   1
   265,'BUS_265     ', 110.0000,1,     0.000,     0.000,   1,   1,0.97181,  -4.1347,   1
   266,'BUS_266     ', 110.0000,1,     0.000,     0.000,   1,   1,1.00934,  -4.1822,   1
   267,'BUS_267     ', 110.0000,1,     0.000,     0.000,   1,   1,1.00033,  -1.9326,   1
   268,'BUS_268     ', 110.0000,1,     0.000,     0.000,   1,   1,1.01099,  -0.0078,   1
   269,'BUS_269     ', 110.0000,2,     0.000,     0.000,   1,   1,1.01539,  -8.5996,   1
   270,'BUS_270     ', 110.0000,1,     0.000,     0.000,   1,   1,1.01480,  -0.5884,   1
   271,'BUS_271     ', 110.0000,1,     0.000,     0.000,   1,   1,1.01304,  -2.3284,   1
   272,'BUS_272     ', 110.0000,1,     0.000,     0.000,   1,   1,1.01797,  -1.1313,   1
   273,'BUS_273     ', 110.0000,1,     0.000,     0.000,   1,   1,1.01007,  -0.3499,   1
   274,'BUS_274     ', 110.0000,1,     0.000,     0.000,   1,   1,1.00128,  -1.4475,   1
   275,'BUS_275     ', 110.0000,1,     0.000,     0.000,   1,   1,1.00002,  -1.9250,   1
   276,'BUS_276     ', 110.0000,1,     0.000,     0.000,   1,   1,0.99807,  -1.8819,   1
   277,'BUS_277     ', 110.0000,2,     0.000,     0.000,   1,   1,1.00000,  -1.6146,   1
   278,'BUS_278     ', 110.0000,2,     0.000,     0.000,   1,   1,1.00130,  -1.7872,   1
   279,'BUS_279     ', 110.0000,2,     0.000,     0.000,   1,   1,1.01131,   0.1501,   1
   280,'BUS_280     ', 110.0000,1,     0.000,     0.000,   1,   1,1.00022,  -1.9298,   1
   281,'BUS_281     ', 110.0000,2,     0.000,     0.000,   1,   1,1.00299,  -1.2776,   1
   282,'BUS_282     ', 110.0000,2,     0.000,     0.000,   1,   1,1.01479,  -0.7094,   1
   283,'BUS_283     ', 110.0000,1,     0.000,     0.000,   1,   1,0.98317,  -3.1415,   1
   284,'BUS_284     ', 110.0000,1,     0.000,     0.000,   1,   1,1.01399,  -9.1362,   1
   285,'BUS_285     ', 110.0000,1,     0.000,     0.000,   1,   1,0.98369, -12.6177,   1
   286,'BUS_286     ', 110.0000,1,     0.000,     0.000,   1,   1,0.98082, -12.8643,   1
   287,'BUS_287     ', 110.0000,1,     0.000,     0.000,   1,   1,0.97594, -11.7021,   1
   288,'BUS_288     ', 110.0000,1,     0.000,     0.000,   1,   1,1.00178,  -1.4644,   1
   289,'BUS_289     ', 110.0000,2,     0.000,     0.000,   1,   1,1.00003,  -1.6066,   1
   290,'BUS_290     ', 110.0000,1,     0.000,     0.000,   1,   1,0.99892,  -9.1984,   1
   291,'BUS_291     ', 110.0000,1,     0.000,     0.000,   1,   1,1.01454,  -0.8107,   1
   292,'BUS_292     ', 110.0000,1,     0.000,     0.000,   1,   1,0.99857,  -1.7414,   1
   293,'BUS_293     ', 110.0000,1,     0.000,     0.000,   1,   1,0.99941,  -1.7624,   1
   294,'BUS_294     ', 110.0000,2,     0.000,     0.000,   1,   1,0.99996,  -8.9837,   1
   295,'BUS_295     ', 110.0000,1,     0.000,     0.000,   1,   1,0.98370, -11.8243,   1
   296,'BUS_296     ', 110.0000,1,     0.000,     0.000,   1,   1,0.99940,  -1.7669,   1
   297,'BUS_297     ', 110.0000,1,     0.000,     0.000,   1,   1,1.00557,  -3.0309,   1
   298,'BUS_298     ', 110.0000,1,     0.000,     0.000,   1,   1,1.00452,  -3.2087,   1
   299,'BUS_299     ', 110.0000,1,     0.000,     0.000,   1,   1,0.99815,  -1.8763,   1
   300,'BUS_300     ', 110.0000,1,     0.000,     0.000,   1,   1,0.97013,  -8.0045,   1
   301,'BUS_301     ', 110.0000,1,     0.000,     0.000,   1,   1,0.98835,  -3.3970,   1
   302,'BUS_302     ', 110.0000,1,     0.000,     0.000,   1,   1,0.98309, -11.8631,   1
   303,'BUS_303     ', 110.0000,1,     0.000,     0.000,   1,   1,0.98643, -16.8027,   1
   304,'BUS_304     ', 110.0000,1,     0.000,     0.000,   1,   1,1.01090,  -0.4431,   1
   305,'BUS_305     ', 110.0000,1,     0.000,     0.000,   1,   1,0.98893, -10.3614,   1
   306,'BUS_306     ', 110.0000,1,     0.000,     0.000,   1,   1,1.01222,  -7.9114,   1
   307,'BUS_307     ', 110.0000,1,     0.000,     0.000,   1,   1,0.97910, -11.9807,   1
   308,'BUS_308     ', 110.0000,1,     0.000,     0.000,   1,   1,1.01723,  -8.7202,   1
   309,'BUS_309     ', 110.0000,1,     0.000,     0.000,   1,   1,1.02439,  -8.1507,   1
   310,'BUS_310     ', 110.0000,1,     0.000,     0.000,   1,   1,1.00130,  -8.9494,   1
   311,'BUS_311     ', 110.0000,1,     0.000,     0.000,   1,   1,0.97999,  -9.2278,   1
   312,'BUS_312     ', 110.0000,1,     0.000,     0.000,   1,   1,0.97999,  -9.2278,   1
   313,'BUS_313     ', 110.0000,1,     0.000,     0.000,   1,   1,0.96615, -18.2601,   1
   314,'BUS_314     ', 110.0000,2,     0.000,     0.000,   1,   1,0.98526,  -9.2096,   1
   315,'BUS_315     ', 110.0000,1,     0.000,     0.000,   1,   1,0.99328, -15.7565,   1
   316,'BUS_316     ', 110.0000,1,     0.000,     0.000,   1,   1,1.00460,  -1.3575,   1
   317,'BUS_317     ', 110.0000,1,     0.000,     0.000,   1,   1,0.99945, -11.1795,   1
   318,'BUS_318     ', 110.0000,1,     0.000,     0.000,   1,   1,0.97438, -11.5476,   1
   319,'BUS_319     ', 110.0000,1,     0.000,     0.000,   1,   1,0.99598,   0.0234,   1
   320,'BUS_320     ', 110.0000,1,     0.000,     0.000,   1,   1,1.00544, -10.2428,   1
   321,'BUS_321     ', 110.0000,1,     0.000,     0.000,   1,   1,0.99597,  -9.2766,   1
   322,'BUS_322     ', 110.0000,1,     0.000,     0.000,   1,   1,0.98432, -11.1210,   1
   323,'BUS_323     ', 110.0000,1,     0.000,     0.000,   1,   1,0.97345, -10.2602,   1
   324,'BUS_324     ', 110.0000,1,     0.000,     0.000,   1,   1,0.97608, -11.5310,   1
   325,'BUS_325     ', 110.0000,1,     0.000,     0.000,   1,   1,1.00002,  -9.7980,   1
   326,'BUS_326     ', 110.0000,1,     0.000,     0.000,   1,   1,1.00667,  -4.7584,   1
   327,'BUS_327     ', 110.0000,1,     0.000,     0.000,   1,   1,1.00527,  -6.0886,   1
   328,'BUS_328     ', 110.0000,2,     0.000,     0.000,   1,   1,1.02607, -10.3162,   1
   329,'BUS_329     ', 110.0000,2,     0.000,     0.000,   1,   1,1.00000,  -9.5254,   1
   330,'BUS_330     ', 110.0000,2,     0.000,     0.000,   1,   1,1.04654,  -9.9442,   1
   331,'BUS_331     ', 110.0000,2,     0.000,     0.000,   1,   1,1.00236,  -8.6417,   1
   332,'BUS_332     ', 110.0000,1,     0.000,     0.000,   1,   1,1.03448,  -7.2202,   1
   333,'BUS_333     ', 110.0000,1,     0.000,     0.000,   1,   1,0.98435, -13.1747,   1
   334,'BUS_334     ', 110.0000,2,     0.000,     0.000,   1,   1,1.00103, -13.7287,   1
   335,'BUS_335     ', 110.0000,1,     0.000,     0.000,   1,   1,0.98716, -13.8278,   1