0,   100.00, 30, 0, 1,  60.00     / PSS(R)E 30 RAW created by rawd30  FRI, AUG 08 2014  11:18
 IEEE 300-BUS TEST SYSTEM
 IEEE 300-BUS TEST SYSTEM
     1,' 1          ', 115.0000,1,     0.000,     0.000,   1,   1,1.02690,   6.5288,   1
     2,' 1          ', 115.0000,1,     0.000,     0.000,   1,   1,1.03396,   8.2862,   1
     3,' 1          ', 230.0000,1,     0.000,     0.000,   1,   1,0.99356,   7.2291,   1
     4,' 1          ', 345.0000,1,     0.000,     0.000,   1,   1,1.02717,   5.2180,   1
     5,' 1          ', 115.0000,1,     0.000,     0.000,   1,   1,1.01738,   5.2598,   1
     6,' 1          ', 115.0000,1,     0.000,     0.000,   1,   1,1.02944,   7.5481,   1
     7,' 1          ', 230.0000,1,     0.000,     0.000,   1,   1,0.99006,   6.7900,   1
     8,' 1          ', 115.0000,2,     0.000,     0.000,   1,   1,1.01365,   2.8750,   1
     9,' 1          ', 115.0000,1,     0.000,     0.000,   1,   1,1.00205,   3.4000,   1
    10,' 1          ', 230.0000,2,     0.000,     0.000,   1,   1,1.01857,   1.8898,   1
    11,' 1          ', 115.0000,1,     0.000,     0.000,   1,   1,1.00472,   2.9867,   1
    12,' 1          ', 230.0000,1,     0.000,     0.000,   1,   1,0.99500,   5.7873,   1
    13,' 1          ', 115.0000,1,     0.000,     0.000,   1,   1,0.99629,  -0.0330,   1
    14,' 1          ', 115.0000,1,     0.000,     0.000,   1,   1,0.99682,  -4.4854,   1
    15,' 1          ', 115.0000,1,     0.000,     0.000,   1,   1,1.03189,  -8.3929,   1
    16,' 1          ', 345.0000,1,     0.000,     0.000,   1,   1,1.02832,  -2.4447,   1
    17,' 1          ', 115.0000,1,     0.000,     0.000,   1,   1,1.06270, -12.9473,   1
    19,' 1          ', 230.0000,1,     0.000,     0.000,   1,   1,0.97966,   1.5782,   1
    20,' 1          ', 115.0000,2,     0.000,     0.000,   1,   1,0.99919,  -1.9447,   1
    21,' 1          ', 230.0000,1,     0.000,     0.000,   1,   1,0.97322,   2.1495,   1
    22,' 1          ', 115.0000,1,     0.000,     0.000,   1,   1,0.99476,  -1.4599,   1
    23,' 1          ', 115.0000,1,     0.000,     0.000,   1,   1,1.04967,   4.4515,   1
    24,' 1          ', 230.0000,1,     0.000,     0.000,   1,   1,1.00486,   6.5464,   1
    25,' 1          ', 115.0000,1,     0.000,     0.000,   1,   1,1.02277,   1.9518,   1
    26,' 1          ', 115.0000,1,     0.000,     0.000,   1,   1,0.99772,  -1.2237,   1
    27,' 1          ', 115.0000,1,     0.000,     0.000,   1,   1,0.97375,  -4.3901,   1
    33,' 1          ', 115.0000,1,     0.000,     0.000,   1,   1,1.02326, -12.1619,   1
    34,' 1          ', 345.0000,1,     0.000,     0.000,   1,   1,1.03966,  -8.0604,   1
    35,' 1          ', 115.0000,1,     0.000,     0.000,   1,   1,0.97552, -26.1717,   1
    36,' 1          ', 230.0000,1,     0.000,     0.000,   1,   1,1.00086, -23.0343,   1
    37,' 1          ', 115.0000,1,     0.000,     0.000,   1,   1,1.01897, -11.3210,   1
    38,' 1          ', 115.0000,1,     0.000,     0.000,   1,   1,1.01908, -12.7088,   1
    39,' 1          ', 345.0000,1,     0.000,     0.000,   1,   1,1.05207,  -5.9280,   1
    40,' 1          ', 115.0000,1,     0.000,     0.000,   1,   1,1.02044, -12.9026,   1
    41,' 1          ', 115.0000,1,     0.000,     0.000,   1,   1,1.02792, -10.5756,   1
    42,' 1          ', 345.0000,1,     0.000,     0.000,   1,   1,1.04310,  -7.5653,   1
    43,' 1          ', 115.0000,1,     0.000,     0.000,   1,   1,1.00006, -17.1718,   1
    44,' 1          ', 115.0000,1,     0.000,     0.000,   1,   1,1.00857, -17.9946,   1
    45,' 1          ', 230.0000,1,     0.000,     0.000,   1,   1,1.02181, -15.3036,   1
    46,' 1          ', 345.0000,1,     0.000,     0.000,   1,   1,1.03302, -12.0756,   1
    47,' 1          ', 115.0000,1,     0.000,     0.000,   1,   1,0.97779, -23.6334,   1
    48,' 1          ', 115.0000,1,     0.000,     0.000,   1,   1,1.00130, -16.2322,   1
    49,' 1          ', 115.0000,1,     0.000,     0.000,   1,   1,1.04729,  -2.9848,   1
    51,' 1          ', 115.0000,1,     0.000,     0.000,   1,   1,1.02448,  -8.3611,   1
    52,' 1          ', 115.0000,1,     0.000,     0.000,   1,   1,0.99752, -12.3933,   1
    53,' 1          ', 115.0000,1,     0.000,     0.000,   1,   1,0.99557, -18.0519,   1
    54,' 1          ', 115.0000,1,     0.000,     0.000,   1,   1,1.00504, -16.8140,   1
    55,' 1          ', 115.0000,1,     0.000,     0.000,   1,   1,1.01533, -12.9793,   1
    57,' 1          ', 115.0000,1,     0.000,     0.000,   1,   1,1.03380,  -9.5826,   1
    58,' 1          ', 115.0000,1,     0.000,     0.000,   1,   1,0.99148,  -7.9276,   1
    59,' 1          ', 115.0000,1,     0.000,     0.000,   1,   1,0.97860,  -7.3324,   1
    60,' 1          ', 230.0000,1,     0.000,     0.000,   1,   1,1.02653, -10.7945,   1
    61,' 1          ', 115.0000,1,     0.000,     0.000,   1,   1,0.99057,  -5.5647,   1
    62,' 1          ', 230.0000,1,     0.000,     0.000,   1,   1,1.01682,  -3.4067,   1
    63,' 1          ', 115.0000,2,     0.000,     0.000,   1,   1,0.95830, -19.7682,   1
    64,' 1          ', 230.0000,1,     0.000,     0.000,   1,   1,0.94839, -15.1559,   1
    69,' 1          ', 115.0000,1,     0.000,     0.000,   1,   1,0.96277, -26.0894,   1
    70,' 1          ', 115.0000,1,     0.000,     0.000,   1,   1,0.95115, -35.6166,   1
    71,' 1          ', 115.0000,1,     0.000,     0.000,   1,   1,0.97923, -30.3357,   1
    72,' 1          ', 115.0000,1,     0.000,     0.000,   1,   1,0.96946, -27.9279,   1
    73,' 1          ', 115.0000,1,     0.000,     0.000,   1,   1,0.97739, -26.2284,   1
    74,' 1          ', 230.0000,1,     0.000,     0.000,   1,   1,0.99635, -22.4718,   1
    76,' 1          ', 115.0000,2,     0.000,     0.000,   1,   1,0.96310, -26.9925,   1
    77,' 1          ', 115.0000,1,     0.000,     0.000,   1,   1,0.98366, -25.3891,   1
    78,' 1          ', 115.0000,1,     0.000,     0.000,   1,   1,0.98989, -24.4986,   1
    79,' 1          ', 115.0000,1,     0.000,     0.000,   1,   1,0.98187, -25.4225,   1
    80,' 1          ', 115.0000,1,     0.000,     0.000,   1,   1,0.98709, -25.4092,   1
    81,' 1          ', 345.0000,1,     0.000,     0.000,   1,   1,1.03336, -19.2951,   1
    84,' 1          ', 115.0000,2,     0.000,     0.000,   1,   1,1.02500, -17.6109,   1
    85,' 1          ', 230.0000,1,     0.000,     0.000,   1,   1,0.98671, -17.6539,   1
    86,' 1          ', 230.0000,1,     0.000,     0.000,   1,   1,0.99009, -14.0910,   1
    87,' 1          ', 230.0000,1,     0.000,     0.000,   1,   1,0.99033,  -7.5029,   1
    88,' 1          ', 230.0000,1,     0.000,     0.000,   1,   1,1.01480, -21.3950,   1
    89,' 1          ', 115.0000,1,     0.000,     0.000,   1,   1,1.03078, -11.0723,   1
    90,' 1          ', 115.0000,1,     0.000,     0.000,   1,   1,1.02627, -11.2551,   1
    91,' 1          ', 115.0000,2,     0.000,     0.000,   1,   1,1.05200,  -9.3291,   1
    92,' 1          ', 115.0000,2,     0.000,     0.000,   1,   1,1.05200,  -6.2309,   1
    94,' 1          ', 115.0000,1,     0.000,     0.000,   1,   1,0.99185,  -9.1942,   1
    97,' 1          ', 115.0000,1,     0.000,     0.000,   1,   1,1.01802, -13.1757,   1
    98,' 1          ', 115.0000,2,     0.000,     0.000,   1,   1,1.00000, -14.5436,   1
    99,' 1          ', 115.0000,1,     0.000,     0.000,   1,   1,0.98932, -20.2941,   1
   100,' 1          ', 115.0000,1,     0.000,     0.000,   1,   1,1.00581, -14.3813,   1
   102,' 1          ', 115.0000,1,     0.000,     0.000,   1,   1,1.00045, -15.1621,   1
   103,' 1          ', 115.0000,1,     0.000,     0.000,   1,   1,1.02856, -12.0786,   1
   104,' 1          ', 115.0000,1,     0.000,     0.000,   1,   1,0.99554, -17.2885,   1
   105,' 1          ', 115.0000,1,     0.000,     0.000,   1,   1,1.02204, -12.9846,   1
   107,' 1          ', 115.0000,1,     0.000,     0.000,   1,   1,1.00916, -16.1103,   1
   108,' 1          ', 115.0000,2,     0.000,     0.000,   1,   1,0.99000, -20.2826,   1
   109,' 1          ', 115.0000,1,     0.000,     0.000,   1,   1,0.97483, -26.2438,   1
   110,' 1          ', 115.0000,1,     0.000,     0.000,   1,   1,0.97282, -24.8282,   1
   112,' 1          ', 115.0000,1,     0.000,     0.000,   1,   1,0.97245, -28.9062,   1
   113,' 1          ', 115.0000,1,     0.000,     0.000,   1,   1,0.97006, -25.7619,   1
   114,' 1          ', 115.0000,1,     0.000,     0.000,   1,   1,0.97462, -28.8118,   1
   115,' 2          ', 115.0000,1,     0.000,     0.000,   2,   2,0.90038,  12.1890,   1
   116,' 2          ', 115.0000,1,     0.000,     0.000,   2,   2,0.98336,  18.6330,   1
   117,' 2          ', 115.0000,1,     0.000,   325.000,   2,   2,0.90620,  25.4506,   1
   118,' 2          ', 115.0000,1,     0.000,     0.000,   2,   2,0.90151,  26.6008,   1
   119,' 2          ', 115.0000,2,     0.000,     0.000,   2,   2,1.04350,  41.5441,   1
   120,' 2          ', 115.0000,1,     0.000,    55.000,   2,   2,1.00716,  36.7423,   1
   121,' 2          ', 115.0000,1,     0.000,     0.000,   2,   2,0.86969,  15.8911,   1
   122,' 2          ', 115.0000,1,     0.000,     0.000,   2,   2,0.88431,   9.5764,   1
   123,' 2          ', 115.0000,1,     0.000,     0.000,   2,   2,0.91738,   4.2024,   1
   124,' 2          ', 115.0000,2,     0.000,     0.000,   2,   2,0.96485,  15.4278,   1
   125,' 2          ', 115.0000,2,     0.000,     0.000,   2,   2,0.94048,  -6.2517,   1
   126,' 2          ', 115.0000,1,     0.000,     0.000,   2,   2,0.93914,  -1.4935,   1
   127,' 2          ', 230.0000,1,     0.000,     0.000,   2,   2,0.97399,  -7.1624,   1
   128,' 2          ', 230.0000,1,     0.000,     0.000,   2,   2,0.98878,  -5.1250,   1
   129,' 2          ', 230.0000,1,     0.000,     0.000,   2,   2,0.98640,  -4.2641,   1
   130,' 2          ', 230.0000,1,     0.000,     0.000,   2,   2,1.01196,   6.3887,   1
   131,' 2          ', 230.0000,1,     0.000,     0.000,   2,   2,0.98194,   6.7268,   1
   132,' 2          ', 230.0000,1,     0.000,     0.000,   2,   2,0.99577,   4.6684,   1
   133,' 2          ', 230.0000,1,     0.000,     0.000,   2,   2,0.99029,  -7.3706,   1
   134,' 2          ', 230.0000,1,     0.000,     0.000,   2,   2,1.00976,  -6.3717,   1
   135,' 2          ', 230.0000,1,     0.000,     0.000,   2,   2,1.01243,  -6.5111,   1
   136,' 2          ', 230.0000,1,     0.000,     0.000,   2,   2,1.04568,  -1.1467,   1
   137,' 2          ', 230.0000,1,     0.000,     0.000,   2,   2,1.04237,  -7.4151,   1
   138,' 2          ', 230.0000,2,     0.000,     0.000,   2,   2,1.05139, -16.8720,   1
   139,' 2          ', 115.0000,1,     0.000,     0.000,   2,   2,1.01032,  -9.3208,   1
   140,' 2          ', 230.0000,1,     0.000,     0.000,   2,   2,1.03973,  -9.2007,   1
   141,' 2          ', 230.0000,2,     0.000,     0.000,   2,   2,1.05100,  -5.4939,   1
   142,' 2          ', 230.0000,1,     0.000,     0.000,   2,   2,1.01330,  -7.5277,   1
   143,' 2          ', 230.0000,2,     0.000,     0.000,   2,   2,1.04350,  -0.1795,   1
   144,' 2          ', 230.0000,1,     0.000,     0.000,   2,   2,1.01666,  -3.1528,   1
   145,' 2          ', 230.0000,1,     0.000,     0.000,   2,   2,1.00760,  -4.8510,   1
   146,' 2          ', 230.0000,2,     0.000,     0.000,   2,   2,1.05239,  -0.7414,   1
   147,' 2          ', 230.0000,2,     0.000,     0.000,   2,   2,1.05280,   3.2133,   1
   148,' 2          ', 230.0000,1,     0.000,     0.000,   2,   2,1.05770,  -4.0254,   1
   149,' 2          ', 230.0000,2,     0.000,     0.000,   2,   2,1.07319,   0.8420,   1
   150,' 2          ', 230.0000,1,     0.000,     0.000,   2,   2,0.98244,   7.0125,   1
   151,' 2          ', 230.0000,1,     0.000,     0.000,   2,   2,0.99759,   5.0675,   1
   152,' 2          ', 230.0000,2,     0.000,     0.000,   2,   2,1.05350,   6.1763,   1
   153,' 2          ', 230.0000,2,     0.000,     0.000,   2,   2,1.04350,   6.4577,   1
   154,' 2          ', 115.0000,1,     0.000,    34.500,   2,   2,0.96512,  -6.2114,   1
   155,' 2          ', 230.0000,1,     0.000,     0.000,   2,   2,1.01419,   1.9837,   1
   156,' 2          ', 115.0000,2,     0.000,     0.000,   2,   2,0.95959,   0.3955,   1
   157,' 2          ', 230.0000,1,     0.000,     0.000,   2,   2,0.90469,  11.2536,   1
   158,' 2          ', 230.0000,1,     0.000,     0.000,   2,   2,0.91676,  10.6324,   1
   159,' 2          ', 230.0000,1,     0.000,     0.000,   2,   2,0.89562,  15.6140,   1
   160,' 2          ', 230.0000,1,     0.000,     0.000,   2,   2,0.93393,  13.2254,   1
   161,' 2          ', 230.0000,1,     0.000,     0.000,   2,   2,1.03467,   4.5907,   1
   162,' 2          ', 230.0000,1,     0.000,     0.000,   2,   2,0.98918,  13.5797,   1
   163,' 2          ', 230.0000,1,     0.000,     0.000,   2,   2,1.03479,  -2.6510,   1
   164,' 2          ', 230.0000,1,     0.000,  -212.000,   2,   2,0.97995,   4.6867,   1
   165,' 2          ', 230.0000,1,     0.000,     0.000,   2,   2,0.99877,  21.4149,   1
   166,' 2          ', 230.0000,1,     0.000,  -103.000,   2,   2,0.99645,  25.3349,   1
   167,' 2          ', 230.0000,1,     0.000,     0.000,   2,   2,0.95491,  -6.8521,   1
   168,' 2          ', 230.0000,1,     0.000,     0.000,   2,   2,0.98880,  -5.1508,   1
   169,' 2          ', 230.0000,1,     0.000,     0.000,   2,   2,0.97024,  -6.7217,   1
   170,' 2          ', 115.0000,2,     0.000,     0.000,   2,   2,0.92111,   1.3061,   1
   171,' 2          ', 115.0000,2,     0.000,     0.000,   2,   2,0.97087, -11.9547,   1
   172,' 2          ', 115.0000,1,     0.000,     0.000,   2,   2,1.02401, -11.7672,   1
   173,' 2          ', 115.0000,1,     0.000,    53.000,   2,   2,0.98290, -17.9275,   1
   174,' 2          ', 115.0000,1,     0.000,     0.000,   2,   2,1.06207,  -8.1925,   1
   175,' 2          ', 115.0000,1,     0.000,     0.000,   2,   2,0.97280, -12.0087,   1
   176,' 2          ', 115.0000,2,     0.000,     0.000,   2,   2,1.05220,  -0.1166,   1
   177,' 2          ', 115.0000,2,     0.000,     0.000,   2,   2,1.00759,  -4.0922,   1
   178,' 2          ', 115.0000,1,     0.000,     0.000,   2,   2,0.93927, -11.1997,   1
   179,' 2          ', 115.0000,1,     0.000,    45.000,   2,   2,0.96923, -13.9728,   1
   180,' 2          ', 115.0000,1,     0.000,     0.000,   2,   2,0.97880,  -7.7655,   1
   181,' 2          ', 230.0000,1,     0.000,     0.000,   2,   2,1.04654,  -7.9375,   1
   182,' 2          ', 230.0000,1,     0.000,     0.000,   2,   2,1.04205,  -9.9552,   1
   183,' 2          ', 115.0000,1,     0.000,     0.000,   2,   2,0.97142,   3.0499,   1
   184,' 2          ', 230.0000,1,     0.000,     0.000,   2,   2,1.03375,  -5.1976,   1
   185,' 2          ', 230.0000,2,     0.000,     0.000,   2,   2,1.05220,  -2.6987,   1
   186,' 2          ', 230.0000,2,     0.000,     0.000,   2,   2,1.06500,  -4.1705,   1
   187,' 2          ', 230.0000,2,     0.000,     0.000,   2,   2,1.06500,  -5.1921,   1
   188,' 2          ', 230.0000,1,     0.000,     0.000,   2,   2,1.04900,  -7.2777,   1
   189,' 3          ',  66.0000,1,     0.000,     0.000,   3,   3,0.99744, -26.2445,   1
   190,' 3          ', 345.0000,2,     0.000,  -150.000,   3,   3,1.05510, -21.0433,   1
   191,' 3          ', 230.0000,2,     0.000,     0.000,   3,   3,1.04350,  11.7906,   1
   192,' 3          ', 230.0000,1,     0.000,     0.000,   3,   3,0.93803, -11.6239,   1
   193,' 3          ',  66.0000,1,     0.000,     0.000,   3,   3,0.98939, -26.4860,   1
   194,' 3          ', 345.0000,1,     0.000,     0.000,   3,   3,1.04838, -19.6276,   1
   195,' 3          ', 345.0000,1,     0.000,     0.000,   3,   3,1.03535, -21.2059,   1
   196,' 3          ', 115.0000,1,     0.000,     0.000,   3,   3,0.96952, -25.7314,   1
   197,' 3          ', 115.0000,1,     0.000,     0.000,   3,   3,0.99066, -24.1339,   1
   198,' 3          ', 115.0000,2,     0.000,     0.000,   3,   3,1.01500, -21.0006,   1
   199,' 3          ', 115.0000,1,     0.000,     0.000,   3,   3,0.95285, -26.4595,   1
   200,' 3          ', 115.0000,1,     0.000,     0.000,   3,   3,0.95508, -26.3491,   1
   201,' 1          ',  66.0000,1,     0.000,     0.000,   1,   1,0.96878, -27.9104,   1
   202,' 3          ',  66.0000,1,     0.000,     0.000,   3,   3,0.99074, -25.7507,   1
   203,' 3          ', 115.0000,1,     0.000,     0.000,   3,   3,1.00328, -22.7689,   1
   204,' 3          ',  66.0000,1,     0.000,     0.000,   3,   3,0.97122, -26.0961,   1
   205,' 3          ',  66.0000,1,     0.000,     0.000,   3,   3,0.98340, -26.4555,   1
   206,' 3          ',  66.0000,1,     0.000,     0.000,   3,   3,0.99920, -27.7186,   1
   207,' 1          ',  66.0000,1,     0.000,     0.000,   1,   1,1.01397, -27.7146,   1
   208,' 3          ',  66.0000,1,     0.000,     0.000,   3,   3,0.99267, -26.6650,   1
   209,' 3          ',  66.0000,1,     0.000,     0.000,   3,   3,0.99984, -26.0606,   1
   210,' 3          ', 115.0000,1,     0.000,     0.000,   3,   3,0.97882, -24.6336,   1
   211,' 3          ', 115.0000,1,     0.000,     0.000,   3,   3,1.00153, -23.7339,   1
   212,' 3          ', 138.0000,1,     0.000,     0.000,   3,   3,1.01300, -22.9264,   1
   213,' 3          ',  16.5000,2,     0.000,     0.000,   3,   3,1.01000, -12.0947,   1
   214,' 3          ', 138.0000,1,     0.000,     0.000,   3,   3,0.99184, -17.9535,   1
   215,' 3          ', 138.0000,1,     0.000,     0.000,   3,   3,0.98655, -20.6541,   1
   216,' 3          ', 138.0000,1,     0.000,     0.000,   3,   3,0.97501, -22.9505,   1
   217,' 3          ', 138.0000,1,     0.000,     0.000,   3,   3,1.02127, -22.6200,   1
   218,' 3          ', 138.0000,1,     0.000,     0.000,   3,   3,1.00724, -23.0493,   1
   219,' 3          ', 345.0000,1,     0.000,     0.000,   3,   3,1.05502, -21.5695,   1
   220,' 3          ', 138.0000,2,     0.000,     0.000,   3,   3,1.00800, -22.1484,   1
   221,' 3          ', 138.0000,2,     0.000,     0.000,   3,   3,1.00000, -22.9124,   1
   222,' 3          ',  20.0000,2,     0.000,     0.000,   3,   3,1.05000, -23.5881,   1
   223,' 3          ', 138.0000,1,     0.000,     0.000,   3,   3,0.99644, -23.1213,   1
   224,' 3          ', 230.0000,1,     0.000,     0.000,   3,   3,1.00204, -21.9832,   1
   225,' 3          ', 230.0000,1,     0.000,     0.000,   3,   3,0.94593, -11.7886,   1
   226,' 3          ', 230.0000,1,     0.000,     0.000,   3,   3,1.01921, -22.0311,   1
   227,' 3          ',  27.0000,2,     0.000,     0.000,   3,   3,1.00000, -27.6420,   1
   228,' 3          ', 138.0000,1,     0.000,     0.000,   3,   3,1.04221, -21.3623,   1
   229,' 3          ', 138.0000,1,     0.000,     0.000,   3,   3,1.04945, -20.3671,   1
   230,' 3          ',  20.0000,2,     0.000,     0.000,   3,   3,1.04000, -14.2452,   1
   231,' 3          ', 345.0000,1,     0.000,  -300.000,   3,   3,1.05322, -21.6439,   1
   232,' 3          ', 138.0000,1,     0.000,     0.000,   3,   3,1.04118, -23.6191,   1
   233,' 3          ',  66.0000,2,     0.000,     0.000,   3,   3,1.00000, -26.3221,   1
   234,' 3          ', 138.0000,1,     0.000,     0.000,   3,   3,1.03850, -21.3159,   1
   235,' 3          ', 138.0000,1,     0.000,     0.000,   3,   3,1.00951, -21.4511,   1
   236,' 3          ',  20.0000,2,     0.000,     0.000,   3,   3,1.01628, -15.8182,   1
   237,' 3          ', 345.0000,1,     0.000,     0.000,   3,   3,1.05545, -21.5204,   1
   238,' 3          ', 138.0000,2,     0.000,  -150.000,   3,   3,1.01000, -21.3634,   1
   239,' 3          ', 138.0000,2,     0.000,     0.000,   3,   3,1.00000, -16.2846,   1
   240,' 3          ', 230.0000,1,     0.000,  -140.000,   3,   3,1.02378, -20.5605,   1
   241,' 3          ',  20.0000,2,     0.000,     0.000,   3,   3,1.05000, -16.9306,   1
   242,' 3          ', 138.0000,2,     0.000,     0.000,   3,   3,0.99300, -17.9493,   1
   243,' 3          ',  66.0000,2,     0.000,     0.000,   3,   3,1.01000, -19.6936,   1
   244,' 3          ',  66.0000,1,     0.000,     0.000,   3,   3,0.99214, -20.6325,   1
   245,' 3          ',  66.0000,1,     0.000,     0.000,   3,   3,0.97108, -21.3165,   1
   246,' 3          ',  66.0000,1,     0.000,     0.000,   3,   3,0.96510, -22.1613,   1
   247,' 3          ',  66.0000,1,     0.000,     0.000,   3,   3,0.96886, -22.0877,   1
   248,' 3          ',  66.0000,1,     0.000,    45.600,   3,   3,0.97604, -25.6462,   1
   249,' 3          ',  66.0000,1,     0.000,     0.000,   3,   3,0.97526, -26.0706,   1
   250,' 3          ',  66.0000,1,     0.000,     0.000,   3,   3,1.01961, -24.2127,   1
   281,' 3          ', 230.0000,1,     0.000,     0.000,   3,   3,1.02513, -20.4877,   1
   319,' 1          ', 230.0000,1,     0.000,     0.000,   1,   1,1.01441,   1.9939,   1
   320,' 1          ', 115.0000,1,     0.000,     0.000,   1,   1,1.01374,  -1.7249,   1
   322,' 1          ', 115.0000,1,     0.000,     0.000,   1,   1,1.00024, -17.5774,   1
   323,' 1          ', 230.0000,1,     0.000,     0.000,   1,   1,0.98015, -13.5905,   1
   324,' 1          ', 115.0000,1,     0.000,     0.000,   1,   1,0.97494, -23.4410,   1
   526,' 1          ', 115.0000,1,     0.000,     0.000,   1,   1,0.94287, -36.4566,   1
   528,' 1          ', 115.0000,1,     0.000,     0.000,   1,   1,0.97222, -38.0362,   1
   531,' 1          ', 115.0000,1,     0.000,     0.000,   1,   1,0.96031, -29.5517,   1
   552,' 1          ', 115.0000,1,     0.000,     0.000,   1,   1,1.00079, -23.8081,   1
   562,' 1          ', 230.0000,1,     0.000,     0.000,   1,   1,0.97758, -28.4746,   1
   609,' 1          ', 115.0000,1,     0.000,     0.000,   1,   1,0.95819, -29.2388,   1
   664,' 3          ', 345.0000,1,     0.000,     0.000,   3,   3,1.03041, -17.4129,   1
  1201,' 2          ', 115.0000,1,     0.000,     0.000,   2,   2,1.21028,  48.0822,   1
  2040,' 3          ', 115.0000,1,     0.000,     0.000,   3,   3,0.96542, -15.3518,   1
  7001,' 1          ',  13.8000,2,     0.000,     0.000,   1,   1,1.05070,  11.3778,   1
  7002,' 1          ',  13.8000,2,     0.000,     0.000,   1,   1,1.05070,  13.0342,   1
  7003,' 1          ',  13.8000,2,     0.000,     0.000,   1,   1,1.02883,  14.3962,   1
  7011,' 1          ',  13.8000,2,     0.000,     0.000,   1,   1,1.01450,   5.5170,   1
  7012,' 1          ',  13.8000,2,     0.000,     0.000,   1,   1,1.05070,  12.1613,   1
  7017,' 1          ',  13.8000,2,     0.000,     0.000,   1,   1,1.04897, -10.3036,   1
  7023,' 1          ',  13.8000,2,     0.000,     0.000,   1,   1,1.05070,   6.6625,   1
  7024,' 1          ',  13.8000,2,     0.000,     0.000,   1,   1,1.02900,  13.1266,   1
  7039,' 1          ',  20.0000,2,     0.000,     0.000,   1,   1,1.05000,   2.0028,   1
  7044,' 1          ',  13.8000,2,     0.000,     0.000,   1,   1,1.01450, -14.4439,   1
  7049,' 1          ',  13.8000,3,     0.000,     0.000,   1,   1,1.05070,   0.0000,   1
  7055,' 1          ',  13.8000,2,     0.000,     0.000,   1,   1,0.99670,  -8.2683,   1
  7057,' 1          ',  13.8000,2,     0.000,     0.000,   1,   1,1.02120,  -5.0291,   1
  7061,' 1          ',  13.8000,2,     0.000,     0.000,   1,   1,1.01450,  -0.1287,   1
  7062,' 1          ',  13.8000,2,     0.000,     0.000,   1,   1,1.00170,   3.4801,   1
  7071,' 1          ',  13.8000,2,     0.000,     0.000,   1,   1,0.98920, -25.8051,   1
  7130,' 2          ',  13.8000,2,     0.000,     0.000,   2,   2,1.05070,  19.9519,   1
  7139,' 2          ',  13.8000,2,     0.000,     0.000,   2,   2,1.05070,  -2.9985,   1
  7166,' 2          ',  13.8000,2,     0.000,     0.000,   2,   2,1.01450,  30.1674,   1
  9001,' 1          ', 115.0000,1,     0.000,     0.000,   1,   9,1.01516, -11.3411,   1
  9002,' 1          ',   6.6000,2,     0.000,     0.000,   1,   9,0.99347, -18.9649,   1
  9003,' 1          ',   6.6000,1,     0.140,     2.400,   1,   9,0.97163, -19.9536,   1
  9004,' 1          ',   6.6000,1,     0.000,     0.000,   1,   9,0.96504, -20.0938,   1
  9005,' 1          ', 115.0000,1,     0.000,     0.000,   1,   9,1.01512, -11.4144,   1
  9006,' 1          ',   6.6000,1,     0.000,     0.000,   1,   9,0.99169, -17.6440,   1
  9007,' 1          ',   6.6000,1,     0.000,     0.000,   1,   9,0.97989, -18.9319,   1
  9012,' 1          ',   6.6000,1,     0.000,     0.000,   1,   9,1.00126, -17.3709,   1
  9021,' 1          ',   6.6000,1,     0.000,     0.000,   1,   9,0.98768, -19.1860,   1
  9022,' 1          ',   0.6000,1,     0.080,     0.000,   1,   9,0.96382, -21.7637,   1
  9023,' 1          ',   6.6000,1,     0.000,     0.000,   1,   9,0.97365, -19.4957,   1
  9024,' 1          ',   0.6000,1,     0.070,     0.000,   1,   9,0.96944, -21.5361,   1
  9025,' 1          ',   0.6000,1,     0.020,     0.000,   1,   9,0.96369, -20.5591,   1
  9026,' 1          ',   0.6000,1,     0.020,     0.000,   1,   9,0.96454, -20.4697,   1
  9031,' 1          ',   0.6000,1,     0.100,     0.000,   1,   9,0.91925, -25.4279,   1
  9032,' 1          ',   0.6000,1,     0.070,     0.000,   1,   9,0.93180, -24.2084,   1
  9033,' 1          ',   0.6000,1,     0.100,     0.000,   1,   9,0.91625, -25.7518,   1
  9034,' 1          ',   0.6000,1,     0.080,     1.720,   1,   9,0.98512, -21.3971,   1
  9035,' 1          ',   0.6000,1,     0.090,     0.000,   1,   9,0.93826, -23.5364,   1
  9036,' 1          ',   2.3000,1,     0.000,     0.000,   1,   9,0.94766, -23.0133,   1
  9037,' 1          ',   0.6000,1,     0.100,     0.000,   1,   9,0.94496, -22.9289,   1
  9038,' 1          ',   0.6000,1,     0.140,     0.000,   1,   9,0.92680, -24.8068,   1
  9041,' 1          ',   0.6000,1,     0.050,     0.000,   1,   9,0.95160, -21.6311,   1
  9042,' 1          ',   0.6000,1,     0.040,     0.000,   1,   9,0.93812, -22.8244,   1
  9043,' 1          ',   2.3000,1,     0.000,     0.000,   1,   9,0.95273, -21.7377,   1
  9044,' 1          ',   6.6000,1,     0.000,     0.000,   1,   9,0.96725, -20.0529,   1
  9051,' 1          ',  13.8000,2,     0.000,     0.000,   1,   9,1.00000, -19.6211,   1
  9052,' 1          ',  13.8000,1,     0.000,     0.000,   1,   9,0.98271, -17.2947,   1
  9053,' 1          ',  13.8000,2,     0.000,     0.000,   1,   9,1.00000, -17.7803,   1
  9054,' 1          ',  13.8000,2,     0.000,     0.000,   1,   9,1.00000,  -6.9336,   1
  9055,' 1          ',  13.8000,2,     0.000,     0.000,   1,   9,1.00000,  -7.6422,   1
  9071,' 1          ',   0.6000,1,     0.050,     0.000,   1,   9,0.96373, -20.7582,   1
  9072,' 1          ',   0.6000,1,     0.050,     0.000,   1,   9,0.96883, -20.1915,   1
  9121,' 1          ',   6.6000,1,     0.000,     0.000,   1,   9,0.97885, -19.3993,   1
  9533,' 1          ',   2.3000,1,     0.100,     0.000,   1,   9,1.04052, -18.2941,   1
 0 /End of Bus data, Begin Load data
     1,'BL',1,   1,   1,    90.000,    49.000,     0.000,     0.000,     0.000,     0.000,   1
     2,'BL',1,   1,   1,    56.000,    15.000,     0.000,     0.000,     0.000,     0.000,   1
     3,'BL',1,   1,   1,    20.000,     0.000,     0.000,     0.000,     0.000,     0.000,   1
     5,'BL',1,   1,   1,   353.000,   130.000,     0.000,     0.000,     0.000,     0.000,   1
     6,'BL',1,   1,   1,   120.000,    41.000,     0.000,     0.000,     0.000,     0.000,   1
     8,'BL',1,   1,   1,    58.000,    14.000,     0.000,     0.000,     0.000,     0.000,   1
     9,'BL',1,   1,   1,    96.000,    43.000,     0.000,     0.000,     0.000,     0.000,   1
    10,'BL',1,   1,   1,   148.000,    33.000,     0.000,     0.000,     0.000,     0.000,   1
    11,'BL',1,   1,   1,    83.000,    21.000,     0.000,     0.000,     0.000,     0.000,   1
    13,'BL',1,   1,   1,    58.000,    10.000,     0.000,     0.000,     0.000,     0.000,   1
    14,'BL',1,   1,   1,   160.000,    60.000,     0.000,     0.000,     0.000,     0.000,   1
    15,'BL',1,   1,   1,   126.700,    23.000,     0.000,     0.000,     0.000,     0.000,   1
    17,'BL',1,   1,   1,   561.000,   220.000,     0.000,     0.000,     0.000,     0.000,   1
    20,'BL',1,   1,   1,   595.000,   120.000,     0.000,     0.000,     0.000,     0.000,   1
    21,'BL',1,   1,   1,    77.000,     1.000,     0.000,     0.000,     0.000,     0.000,   1
    22,'BL',1,   1,   1,    81.000,    23.000,     0.000,     0.000,     0.000,     0.000,   1
    23,'BL',1,   1,   1,    21.000,     7.000,     0.000,     0.000,     0.000,     0.000,   1
    25,'BL',1,   1,   1,    45.000,    12.000,     0.000,     0.000,     0.000,     0.000,   1
    26,'BL',1,   1,   1,    28.000,     9.000,     0.000,     0.000,     0.000,     0.000,   1
    27,'BL',1,   1,   1,    69.000,    13.000,     0.000,     0.000,     0.000,     0.000,   1
    33,'BL',1,   1,   1,    55.000,     6.000,     0.000,     0.000,     0.000,     0.000,   1
    37,'BL',1,   1,   1,    85.000,    32.000,     0.000,     0.000,     0.000,     0.000,   1
    38,'BL',1,   1,   1,   155.000,    18.000,     0.000,     0.000,     0.000,     0.000,   1
    40,'BL',1,   1,   1,    46.000,   -21.000,     0.000,     0.000,     0.000,     0.000,   1
    41,'BL',1,   1,   1,    86.000,     0.000,     0.000,     0.000,     0.000,     0.000,   1
    43,'BL',1,   1,   1,    39.000,     9.000,     0.000,     0.000,     0.000,     0.000,   1
    44,'BL',1,   1,   1,   195.000,    29.000,     0.000,     0.000,     0.000,     0.000,   1
    47,'BL',1,   1,   1,    58.000,    11.800,     0.000,     0.000,     0.000,     0.000,   1
    48,'BL',1,   1,   1,    41.000,    19.000,     0.000,     0.000,     0.000,     0.000,   1
    49,'BL',1,   1,   1,    92.000,    26.000,     0.000,     0.000,     0.000,     0.000,   1
    51,'BL',1,   1,   1,    -5.000,     5.000,     0.000,     0.000,     0.000,     0.000,   1
    52,'BL',1,   1,   1,    61.000,    28.000,     0.000,     0.000,     0.000,     0.000,   1
    53,'BL',1,   1,   1,    69.000,     3.000,     0.000,     0.000,     0.000,     0.000,   1
    54,'BL',1,   1,   1,    10.000,     1.000,     0.000,     0.000,     0.000,     0.000,   1